 
  -OEChem-10192103482D

 73 72  0     0  0  0  0  0  0999 V2000
   14.9904   -0.2500    0.0000 O   0  0  0  0  0  0  0  0  0  0  0  0
   17.5885    0.2500    0.0000 O   0  0  0  0  0  0  0  0  0  0  0  0
   12.3923    0.2500    0.0000 O   0  0  0  0  0  0  0  0  0  0  0  0
   20.1865   -0.2500    0.0000 O   0  0  0  0  0  0  0  0  0  0  0  0
    9.7942   -0.2500    0.0000 O   0  0  0  0  0  0  0  0  0  0  0  0
   22.7846    0.2500    0.0000 O   0  0  0  0  0  0  0  0  0  0  0  0
    7.1962    0.2500    0.0000 O   0  0  0  0  0  0  0  0  0  0  0  0
   25.3827   -0.2500    0.0000 O   0  0  0  0  0  0  0  0  0  0  0  0
    4.5981   -0.2500    0.0000 O   0  0  0  0  0  0  0  0  0  0  0  0
   15.8564    0.2500    0.0000 C   0  0  0  0  0  0  0  0  0  0  0  0
   14.1244    0.2500    0.0000 C   0  0  0  0  0  0  0  0  0  0  0  0
   16.7224   -0.2500    0.0000 C   0  0  0  0  0  0  0  0  0  0  0  0
   13.2583   -0.2500    0.0000 C   0  0  0  0  0  0  0  0  0  0  0  0
   18.4545   -0.2500    0.0000 C   0  0  0  0  0  0  0  0  0  0  0  0
   11.5263   -0.2500    0.0000 C   0  0  0  0  0  0  0  0  0  0  0  0
   19.3205    0.2500    0.0000 C   0  0  0  0  0  0  0  0  0  0  0  0
   10.6603    0.2500    0.0000 C   0  0  0  0  0  0  0  0  0  0  0  0
   21.0526    0.2500    0.0000 C   0  0  0  0  0  0  0  0  0  0  0  0
    8.9282    0.2500    0.0000 C   0  0  0  0  0  0  0  0  0  0  0  0
   21.9186   -0.2500    0.0000 C   0  0  0  0  0  0  0  0  0  0  0  0
    8.0622   -0.2500    0.0000 C   0  0  0  0  0  0  0  0  0  0  0  0
   23.6506   -0.2500    0.0000 C   0  0  0  0  0  0  0  0  0  0  0  0
    6.3301   -0.2500    0.0000 C   0  0  0  0  0  0  0  0  0  0  0  0
   24.5167    0.2500    0.0000 C   0  0  0  0  0  0  0  0  0  0  0  0
    5.4641    0.2500    0.0000 C   0  0  0  0  0  0  0  0  0  0  0  0
   26.2487    0.2500    0.0000 C   0  0  0  0  0  0  0  0  0  0  0  0
    3.7320    0.2500    0.0000 C   0  0  0  0  0  0  0  0  0  0  0  0
   27.1147   -0.2500    0.0000 C   0  0  0  0  0  0  0  0  0  0  0  0
    2.8660   -0.2500    0.0000 C   0  0  0  0  0  0  0  0  0  0  0  0
   27.9808    0.2500    0.0000 C   0  0  0  0  0  0  0  0  0  0  0  0
    2.0000    0.2500    0.0000 C   0  0  0  0  0  0  0  0  0  0  0  0
   16.2549    0.7249    0.0000 H   0  0  0  0  0  0  0  0  0  0  0  0
   15.4579    0.7249    0.0000 H   0  0  0  0  0  0  0  0  0  0  0  0
   14.5229    0.7249    0.0000 H   0  0  0  0  0  0  0  0  0  0  0  0
   13.7258    0.7249    0.0000 H   0  0  0  0  0  0  0  0  0  0  0  0
   16.3239   -0.7249    0.0000 H   0  0  0  0  0  0  0  0  0  0  0  0
   17.1210   -0.7249    0.0000 H   0  0  0  0  0  0  0  0  0  0  0  0
   12.8598   -0.7249    0.0000 H   0  0  0  0  0  0  0  0  0  0  0  0
   13.6569   -0.7249    0.0000 H   0  0  0  0  0  0  0  0  0  0  0  0
   18.0560   -0.7249    0.0000 H   0  0  0  0  0  0  0  0  0  0  0  0
   18.8530   -0.7249    0.0000 H   0  0  0  0  0  0  0  0  0  0  0  0
   11.1278   -0.7249    0.0000 H   0  0  0  0  0  0  0  0  0  0  0  0
   11.9248   -0.7249    0.0000 H   0  0  0  0  0  0  0  0  0  0  0  0
   19.7190    0.7249    0.0000 H   0  0  0  0  0  0  0  0  0  0  0  0
   18.9220    0.7249    0.0000 H   0  0  0  0  0  0  0  0  0  0  0  0
   11.0588    0.7249    0.0000 H   0  0  0  0  0  0  0  0  0  0  0  0
   10.2617    0.7249    0.0000 H   0  0  0  0  0  0  0  0  0  0  0  0
   21.4511    0.7249    0.0000 H   0  0  0  0  0  0  0  0  0  0  0  0
   20.6540    0.7249    0.0000 H   0  0  0  0  0  0  0  0  0  0  0  0
    9.3267    0.7249    0.0000 H   0  0  0  0  0  0  0  0  0  0  0  0
    8.5297    0.7249    0.0000 H   0  0  0  0  0  0  0  0  0  0  0  0
   21.5201   -0.7249    0.0000 H   0  0  0  0  0  0  0  0  0  0  0  0
   22.3171   -0.7249    0.0000 H   0  0  0  0  0  0  0  0  0  0  0  0
    7.6636   -0.7249    0.0000 H   0  0  0  0  0  0  0  0  0  0  0  0
    8.4607   -0.7249    0.0000 H   0  0  0  0  0  0  0  0  0  0  0  0
   23.2521   -0.7249    0.0000 H   0  0  0  0  0  0  0  0  0  0  0  0
   24.0492   -0.7249    0.0000 H   0  0  0  0  0  0  0  0  0  0  0  0
    5.9316   -0.7249    0.0000 H   0  0  0  0  0  0  0  0  0  0  0  0
    6.7287   -0.7249    0.0000 H   0  0  0  0  0  0  0  0  0  0  0  0
   24.9152    0.7249    0.0000 H   0  0  0  0  0  0  0  0  0  0  0  0
   24.1181    0.7249    0.0000 H   0  0  0  0  0  0  0  0  0  0  0  0
    5.8626    0.7249    0.0000 H   0  0  0  0  0  0  0  0  0  0  0  0
    5.0656    0.7249    0.0000 H   0  0  0  0  0  0  0  0  0  0  0  0
   26.6472    0.7249    0.0000 H   0  0  0  0  0  0  0  0  0  0  0  0
   25.8502    0.7249    0.0000 H   0  0  0  0  0  0  0  0  0  0  0  0
    4.1306    0.7249    0.0000 H   0  0  0  0  0  0  0  0  0  0  0  0
    3.3335    0.7249    0.0000 H   0  0  0  0  0  0  0  0  0  0  0  0
   27.1147   -0.8700    0.0000 H   0  0  0  0  0  0  0  0  0  0  0  0
    2.8660   -0.8700    0.0000 H   0  0  0  0  0  0  0  0  0  0  0  0
   28.5177   -0.0600    0.0000 H   0  0  0  0  0  0  0  0  0  0  0  0
   27.9808    0.8700    0.0000 H   0  0  0  0  0  0  0  0  0  0  0  0
    2.0000    0.8700    0.0000 H   0  0  0  0  0  0  0  0  0  0  0  0
    1.4631   -0.0600    0.0000 H   0  0  0  0  0  0  0  0  0  0  0  0
  1 10  1  0  0  0  0
  1 11  1  0  0  0  0
  2 12  1  0  0  0  0
  2 14  1  0  0  0  0
  3 13  1  0  0  0  0
  3 15  1  0  0  0  0
  4 16  1  0  0  0  0
  4 18  1  0  0  0  0
  5 17  1  0  0  0  0
  5 19  1  0  0  0  0
  6 20  1  0  0  0  0
  6 22  1  0  0  0  0
  7 21  1  0  0  0  0
  7 23  1  0  0  0  0
  8 24  1  0  0  0  0
  8 26  1  0  0  0  0
  9 25  1  0  0  0  0
  9 27  1  0  0  0  0
 10 12  1  0  0  0  0
 10 32  1  0  0  0  0
 10 33  1  0  0  0  0
 11 13  1  0  0  0  0
 11 34  1  0  0  0  0
 11 35  1  0  0  0  0
 12 36  1  0  0  0  0
 12 37  1  0  0  0  0
 13 38  1  0  0  0  0
 13 39  1  0  0  0  0
 14 16  1  0  0  0  0
 14 40  1  0  0  0  0
 14 41  1  0  0  0  0
 15 17  1  0  0  0  0
 15 42  1  0  0  0  0
 15 43  1  0  0  0  0
 16 44  1  0  0  0  0
 16 45  1  0  0  0  0
 17 46  1  0  0  0  0
 17 47  1  0  0  0  0
 18 20  1  0  0  0  0
 18 48  1  0  0  0  0
 18 49  1  0  0  0  0
 19 21  1  0  0  0  0
 19 50  1  0  0  0  0
 19 51  1  0  0  0  0
 20 52  1  0  0  0  0
 20 53  1  0  0  0  0
 21 54  1  0  0  0  0
 21 55  1  0  0  0  0
 22 24  1  0  0  0  0
 22 56  1  0  0  0  0
 22 57  1  0  0  0  0
 23 25  1  0  0  0  0
 23 58  1  0  0  0  0
 23 59  1  0  0  0  0
 24 60  1  0  0  0  0
 24 61  1  0  0  0  0
 25 62  1  0  0  0  0
 25 63  1  0  0  0  0
 26 28  1  0  0  0  0
 26 64  1  0  0  0  0
 26 65  1  0  0  0  0
 27 29  1  0  0  0  0
 27 66  1  0  0  0  0
 27 67  1  0  0  0  0
 28 30  2  0  0  0  0
 28 68  1  0  0  0  0
 29 31  2  0  0  0  0
 29 69  1  0  0  0  0
 30 70  1  0  0  0  0
 30 71  1  0  0  0  0
 31 72  1  0  0  0  0
 31 73  1  0  0  0  0
M  END
> <PUBCHEM_COMPOUND_CID>
11419564

> <PUBCHEM_COMPOUND_CANONICALIZED>
1

> <PUBCHEM_CACTVS_COMPLEXITY>
324

> <PUBCHEM_CACTVS_HBOND_ACCEPTOR>
9

> <PUBCHEM_CACTVS_HBOND_DONOR>
0

> <PUBCHEM_CACTVS_ROTATABLE_BOND>
28

> <PUBCHEM_CACTVS_SUBSKEYS>
AAADcfB4PAAAAAAAAAAAAAAAAAAAAAAAAAAAAAAAAAAAAAAAAAAAGgAAAAAACACggAIAAAAABACAACBCAAAAAAAAAAAIAAAAAAABBAAAIQACAAAAAAACIAAAAAAAAAAAAAAAAAAAAAAAAAAAAAAAAAAAAA==

> <PUBCHEM_IUPAC_OPENEYE_NAME>
3-[2-[2-[2-[2-[2-[2-[2-(2-allyloxyethoxy)ethoxy]ethoxy]ethoxy]ethoxy]ethoxy]ethoxy]ethoxy]prop-1-ene

> <PUBCHEM_IUPAC_CAS_NAME>
3-[2-[2-[2-[2-[2-[2-[2-(2-prop-2-enoxyethoxy)ethoxy]ethoxy]ethoxy]ethoxy]ethoxy]ethoxy]ethoxy]-1-propene

> <PUBCHEM_IUPAC_NAME_MARKUP>
3-[2-[2-[2-[2-[2-[2-[2-(2-prop-2-enoxyethoxy)ethoxy]ethoxy]ethoxy]ethoxy]ethoxy]ethoxy]ethoxy]prop-1-ene

> <PUBCHEM_IUPAC_NAME>
3-[2-[2-[2-[2-[2-[2-[2-(2-prop-2-enoxyethoxy)ethoxy]ethoxy]ethoxy]ethoxy]ethoxy]ethoxy]ethoxy]prop-1-ene

> <PUBCHEM_IUPAC_SYSTEMATIC_NAME>
3-[2-[2-[2-[2-[2-[2-[2-(2-prop-2-enoxyethoxy)ethoxy]ethoxy]ethoxy]ethoxy]ethoxy]ethoxy]ethoxy]prop-1-ene

> <PUBCHEM_IUPAC_TRADITIONAL_NAME>
3-[2-[2-[2-[2-[2-[2-[2-(2-allyloxyethoxy)ethoxy]ethoxy]ethoxy]ethoxy]ethoxy]ethoxy]ethoxy]prop-1-ene

> <PUBCHEM_IUPAC_INCHI>
InChI=1S/C22H42O9/c1-3-5-23-7-9-25-11-13-27-15-17-29-19-21-31-22-20-30-18-16-28-14-12-26-10-8-24-6-4-2/h3-4H,1-2,5-22H2

> <PUBCHEM_IUPAC_INCHIKEY>
YXGGWUMWQZPHOK-UHFFFAOYSA-N

> <PUBCHEM_XLOGP3_AA>
0.2

> <PUBCHEM_EXACT_MASS>
450.28288291

> <PUBCHEM_MOLECULAR_FORMULA>
C22H42O9

> <PUBCHEM_MOLECULAR_WEIGHT>
450.6

> <PUBCHEM_OPENEYE_CAN_SMILES>
C=CCOCCOCCOCCOCCOCCOCCOCCOCCOCC=C

> <PUBCHEM_OPENEYE_ISO_SMILES>
C=CCOCCOCCOCCOCCOCCOCCOCCOCCOCC=C

> <PUBCHEM_CACTVS_TPSA>
83.1

> <PUBCHEM_MONOISOTOPIC_WEIGHT>
450.28288291

> <PUBCHEM_TOTAL_CHARGE>
0

> <PUBCHEM_HEAVY_ATOM_COUNT>
31

> <PUBCHEM_ATOM_DEF_STEREO_COUNT>
0

> <PUBCHEM_ATOM_UDEF_STEREO_COUNT>
0

> <PUBCHEM_BOND_DEF_STEREO_COUNT>
0

> <PUBCHEM_BOND_UDEF_STEREO_COUNT>
0

> <PUBCHEM_ISOTOPIC_ATOM_COUNT>
0

> <PUBCHEM_COMPONENT_COUNT>
1

> <PUBCHEM_CACTVS_TAUTO_COUNT>
-1

> <PUBCHEM_COORDINATE_TYPE>
1
5
255

$$$$
