 
  -OEChem-10192104432D

 65 64  0     1  0  0  0  0  0999 V2000
    5.4641    2.5600    0.0000 O   0  0  0  0  0  0  0  0  0  0  0  0
    8.9282    2.5600    0.0000 O   0  0  0  0  0  0  0  0  0  0  0  0
    8.0622    4.0600    0.0000 O   0  0  0  0  0  0  0  0  0  0  0  0
   10.6603    2.5600    0.0000 O   0  0  0  0  0  0  0  0  0  0  0  0
    4.5981    4.0600    0.0000 O   0  0  0  0  0  0  0  0  0  0  0  0
    3.7320   -3.4400    0.0000 O   0  0  0  0  0  0  0  0  0  0  0  0
    5.4641   -3.4400    0.0000 O   0  0  0  0  0  0  0  0  0  0  0  0
   11.5263    4.0600    0.0000 O   0  0  0  0  0  0  0  0  0  0  0  0
    7.1962    2.5600    0.0000 C   0  0  3  0  0  0  0  0  0  0  0  0
    7.1962    1.5600    0.0000 C   0  0  0  0  0  0  0  0  0  0  0  0
    6.3301    1.0600    0.0000 C   0  0  0  0  0  0  0  0  0  0  0  0
    6.3301    3.0600    0.0000 C   0  0  3  0  0  0  0  0  0  0  0  0
    6.3301    0.0600    0.0000 C   0  0  0  0  0  0  0  0  0  0  0  0
    5.4641   -0.4400    0.0000 C   0  0  0  0  0  0  0  0  0  0  0  0
    8.0622    3.0600    0.0000 C   0  0  0  0  0  0  0  0  0  0  0  0
    5.4641   -1.4400    0.0000 C   0  0  0  0  0  0  0  0  0  0  0  0
    6.3301    4.0600    0.0000 C   0  0  0  0  0  0  0  0  0  0  0  0
    4.5981   -1.9400    0.0000 C   0  0  0  0  0  0  0  0  0  0  0  0
    4.5981    3.0600    0.0000 C   0  0  0  0  0  0  0  0  0  0  0  0
    9.7942    3.0600    0.0000 C   0  0  3  0  0  0  0  0  0  0  0  0
    3.7320    2.5600    0.0000 C   0  0  0  0  0  0  0  0  0  0  0  0
    4.5981   -2.9400    0.0000 C   0  0  0  0  0  0  0  0  0  0  0  0
    2.8660    3.0600    0.0000 C   0  0  0  0  0  0  0  0  0  0  0  0
    9.7942    4.0600    0.0000 C   0  0  0  0  0  0  0  0  0  0  0  0
    2.0000    2.5600    0.0000 C   0  0  0  0  0  0  0  0  0  0  0  0
   11.5263    3.0600    0.0000 C   0  0  0  0  0  0  0  0  0  0  0  0
   12.3923    2.5600    0.0000 C   0  0  0  0  0  0  0  0  0  0  0  0
   13.2583    3.0600    0.0000 C   0  0  0  0  0  0  0  0  0  0  0  0
   14.1244    2.5600    0.0000 C   0  0  0  0  0  0  0  0  0  0  0  0
    6.6592    2.2500    0.0000 H   0  0  0  0  0  0  0  0  0  0  0  0
    7.4082    0.9774    0.0000 H   0  0  0  0  0  0  0  0  0  0  0  0
    7.8067    1.6677    0.0000 H   0  0  0  0  0  0  0  0  0  0  0  0
    6.1181    1.6426    0.0000 H   0  0  0  0  0  0  0  0  0  0  0  0
    5.7196    0.9523    0.0000 H   0  0  0  0  0  0  0  0  0  0  0  0
    5.7932    3.3700    0.0000 H   0  0  0  0  0  0  0  0  0  0  0  0
    6.5422   -0.5226    0.0000 H   0  0  0  0  0  0  0  0  0  0  0  0
    6.9407    0.1677    0.0000 H   0  0  0  0  0  0  0  0  0  0  0  0
    5.2520    0.1426    0.0000 H   0  0  0  0  0  0  0  0  0  0  0  0
    4.8535   -0.5477    0.0000 H   0  0  0  0  0  0  0  0  0  0  0  0
    5.6762   -2.0226    0.0000 H   0  0  0  0  0  0  0  0  0  0  0  0
    6.0747   -1.3323    0.0000 H   0  0  0  0  0  0  0  0  0  0  0  0
    6.9501    4.0600    0.0000 H   0  0  0  0  0  0  0  0  0  0  0  0
    6.3301    4.6800    0.0000 H   0  0  0  0  0  0  0  0  0  0  0  0
    5.7101    4.0600    0.0000 H   0  0  0  0  0  0  0  0  0  0  0  0
    4.3860   -1.3574    0.0000 H   0  0  0  0  0  0  0  0  0  0  0  0
    3.9875   -2.0477    0.0000 H   0  0  0  0  0  0  0  0  0  0  0  0
    9.2573    3.3700    0.0000 H   0  0  0  0  0  0  0  0  0  0  0  0
    3.3335    2.0850    0.0000 H   0  0  0  0  0  0  0  0  0  0  0  0
    4.1306    2.0850    0.0000 H   0  0  0  0  0  0  0  0  0  0  0  0
    3.2646    3.5350    0.0000 H   0  0  0  0  0  0  0  0  0  0  0  0
    2.4675    3.5350    0.0000 H   0  0  0  0  0  0  0  0  0  0  0  0
   10.4142    4.0600    0.0000 H   0  0  0  0  0  0  0  0  0  0  0  0
    9.7942    4.6800    0.0000 H   0  0  0  0  0  0  0  0  0  0  0  0
    9.1742    4.0600    0.0000 H   0  0  0  0  0  0  0  0  0  0  0  0
    1.6900    3.0969    0.0000 H   0  0  0  0  0  0  0  0  0  0  0  0
    1.4631    2.2500    0.0000 H   0  0  0  0  0  0  0  0  0  0  0  0
    2.3100    2.0231    0.0000 H   0  0  0  0  0  0  0  0  0  0  0  0
   11.9938    2.0850    0.0000 H   0  0  0  0  0  0  0  0  0  0  0  0
   12.7908    2.0850    0.0000 H   0  0  0  0  0  0  0  0  0  0  0  0
    3.7320   -4.0600    0.0000 H   0  0  0  0  0  0  0  0  0  0  0  0
   13.6569    3.5350    0.0000 H   0  0  0  0  0  0  0  0  0  0  0  0
   12.8598    3.5350    0.0000 H   0  0  0  0  0  0  0  0  0  0  0  0
   13.8144    2.0231    0.0000 H   0  0  0  0  0  0  0  0  0  0  0  0
   14.6613    2.2500    0.0000 H   0  0  0  0  0  0  0  0  0  0  0  0
   14.4344    3.0969    0.0000 H   0  0  0  0  0  0  0  0  0  0  0  0
  1 12  1  0  0  0  0
  1 19  1  0  0  0  0
  2 15  1  0  0  0  0
  2 20  1  0  0  0  0
  3 15  2  0  0  0  0
  4 20  1  0  0  0  0
  4 26  1  0  0  0  0
  5 19  2  0  0  0  0
  6 22  1  0  0  0  0
  6 60  1  0  0  0  0
  7 22  2  0  0  0  0
  8 26  2  0  0  0  0
  9 10  1  0  0  0  0
  9 12  1  0  0  0  0
  9 15  1  0  0  0  0
  9 30  1  0  0  0  0
 10 11  1  0  0  0  0
 10 31  1  0  0  0  0
 10 32  1  0  0  0  0
 11 13  1  0  0  0  0
 11 33  1  0  0  0  0
 11 34  1  0  0  0  0
 12 17  1  0  0  0  0
 12 35  1  0  0  0  0
 13 14  1  0  0  0  0
 13 36  1  0  0  0  0
 13 37  1  0  0  0  0
 14 16  1  0  0  0  0
 14 38  1  0  0  0  0
 14 39  1  0  0  0  0
 16 18  1  0  0  0  0
 16 40  1  0  0  0  0
 16 41  1  0  0  0  0
 17 42  1  0  0  0  0
 17 43  1  0  0  0  0
 17 44  1  0  0  0  0
 18 22  1  0  0  0  0
 18 45  1  0  0  0  0
 18 46  1  0  0  0  0
 19 21  1  0  0  0  0
 20 24  1  0  0  0  0
 20 47  1  0  0  0  0
 21 23  1  0  0  0  0
 21 48  1  0  0  0  0
 21 49  1  0  0  0  0
 23 25  1  0  0  0  0
 23 50  1  0  0  0  0
 23 51  1  0  0  0  0
 24 52  1  0  0  0  0
 24 53  1  0  0  0  0
 24 54  1  0  0  0  0
 25 55  1  0  0  0  0
 25 56  1  0  0  0  0
 25 57  1  0  0  0  0
 26 27  1  0  0  0  0
 27 28  1  0  0  0  0
 27 58  1  0  0  0  0
 27 59  1  0  0  0  0
 28 29  1  0  0  0  0
 28 61  1  0  0  0  0
 28 62  1  0  0  0  0
 29 63  1  0  0  0  0
 29 64  1  0  0  0  0
 29 65  1  0  0  0  0
M  END
> <PUBCHEM_COMPOUND_CID>
87662678

> <PUBCHEM_COMPOUND_CANONICALIZED>
1

> <PUBCHEM_CACTVS_COMPLEXITY>
517

> <PUBCHEM_CACTVS_HBOND_ACCEPTOR>
8

> <PUBCHEM_CACTVS_HBOND_DONOR>
1

> <PUBCHEM_CACTVS_ROTATABLE_BOND>
19

> <PUBCHEM_CACTVS_SUBSKEYS>
AAADcfB4PAAAAAAAAAAAAAAAAAAAAAAAAAAAAAAAAAAAAAAAAAAAGgAACAAADRSwgAMCCAAABgAIAACQCAAAAAAAAAAAAAEAAAAQABYAAAAiQAAFIAAEAAGIyOCOAAAAAAAAAAAAAAAAAAAAAAAAAAAAAA==

> <PUBCHEM_IUPAC_OPENEYE_NAME>
9-butanoyloxy-8-(1-butanoyloxyethoxycarbonyl)decanoic acid

> <PUBCHEM_IUPAC_CAS_NAME>
9-(1-oxobutoxy)-8-[oxo-[1-(1-oxobutoxy)ethoxy]methyl]decanoic acid

> <PUBCHEM_IUPAC_NAME_MARKUP>
9-butanoyloxy-8-(1-butanoyloxyethoxycarbonyl)decanoic acid

> <PUBCHEM_IUPAC_NAME>
9-butanoyloxy-8-(1-butanoyloxyethoxycarbonyl)decanoic acid

> <PUBCHEM_IUPAC_SYSTEMATIC_NAME>
9-butanoyloxy-8-(1-butanoyloxyethoxycarbonyl)decanoic acid

> <PUBCHEM_IUPAC_TRADITIONAL_NAME>
9-butyryloxy-8-(1-butyryloxyethoxycarbonyl)capric acid

> <PUBCHEM_IUPAC_INCHI>
InChI=1S/C21H36O8/c1-5-11-19(24)27-15(3)17(13-9-7-8-10-14-18(22)23)21(26)29-16(4)28-20(25)12-6-2/h15-17H,5-14H2,1-4H3,(H,22,23)

> <PUBCHEM_IUPAC_INCHIKEY>
GKRIPJZHWPYPNZ-UHFFFAOYSA-N

> <PUBCHEM_XLOGP3_AA>
4.3

> <PUBCHEM_EXACT_MASS>
416.24101810

> <PUBCHEM_MOLECULAR_FORMULA>
C21H36O8

> <PUBCHEM_MOLECULAR_WEIGHT>
416.5

> <PUBCHEM_OPENEYE_CAN_SMILES>
CCCC(=O)OC(C)C(CCCCCCC(=O)O)C(=O)OC(C)OC(=O)CCC

> <PUBCHEM_OPENEYE_ISO_SMILES>
CCCC(=O)OC(C)C(CCCCCCC(=O)O)C(=O)OC(C)OC(=O)CCC

> <PUBCHEM_CACTVS_TPSA>
116

> <PUBCHEM_MONOISOTOPIC_WEIGHT>
416.24101810

> <PUBCHEM_TOTAL_CHARGE>
0

> <PUBCHEM_HEAVY_ATOM_COUNT>
29

> <PUBCHEM_ATOM_DEF_STEREO_COUNT>
0

> <PUBCHEM_ATOM_UDEF_STEREO_COUNT>
3

> <PUBCHEM_BOND_DEF_STEREO_COUNT>
0

> <PUBCHEM_BOND_UDEF_STEREO_COUNT>
0

> <PUBCHEM_ISOTOPIC_ATOM_COUNT>
0

> <PUBCHEM_COMPONENT_COUNT>
1

> <PUBCHEM_CACTVS_TAUTO_COUNT>
-1

> <PUBCHEM_COORDINATE_TYPE>
1
5
255

> <PUBCHEM_BONDANNOTATIONS>
12  17  3
20  24  3
9  10  3

$$$$
