 
  -OEChem-10192104452D

 74 76  0     1  0  0  0  0  0999 V2000
    7.7331   -1.1440    0.0000 O   0  0  0  0  0  0  0  0  0  0  0  0
    9.4651   -1.1440    0.0000 O   0  0  0  0  0  0  0  0  0  0  0  0
   11.1972    0.8560    0.0000 O   0  0  0  0  0  0  0  0  0  0  0  0
    6.0010   -0.1440    0.0000 O   0  0  0  0  0  0  0  0  0  0  0  0
    6.0010   -3.1440    0.0000 O   0  0  0  0  0  0  0  0  0  0  0  0
    7.7331   -4.1440    0.0000 O   0  0  0  0  0  0  0  0  0  0  0  0
    9.4651   -3.1440    0.0000 O   0  0  0  0  0  0  0  0  0  0  0  0
    4.2690   -0.1440    0.0000 O   0  0  0  0  0  0  0  0  0  0  0  0
    6.0010    1.8560    0.0000 O   0  0  0  0  0  0  0  0  0  0  0  0
   12.6972    4.4540    0.0000 O   0  0  0  0  0  0  0  0  0  0  0  0
    4.2690    2.8560    0.0000 O   0  0  0  0  0  0  0  0  0  0  0  0
    2.5369    1.8560    0.0000 O   0  0  0  0  0  0  0  0  0  0  0  0
   10.6972    2.7220    0.0000 C   0  0  0  0  0  0  0  0  0  0  0  0
   11.1972    1.8560    0.0000 C   0  0  3  0  0  0  0  0  0  0  0  0
   11.1972    3.5880    0.0000 C   0  0  0  0  0  0  0  0  0  0  0  0
    6.8671   -1.6440    0.0000 C   0  0  3  0  0  0  0  0  0  0  0  0
    6.8671   -2.6440    0.0000 C   0  0  3  0  0  0  0  0  0  0  0  0
    7.7331   -3.1440    0.0000 C   0  0  3  0  0  0  0  0  0  0  0  0
    8.5991   -2.6440    0.0000 C   0  0  3  0  0  0  0  0  0  0  0  0
    8.5991   -1.6440    0.0000 C   0  0  3  0  0  0  0  0  0  0  0  0
   12.1972    1.8560    0.0000 C   0  0  0  0  0  0  0  0  0  0  0  0
    9.8312    3.2220    0.0000 C   0  0  0  0  0  0  0  0  0  0  0  0
    9.7124    2.5484    0.0000 C   0  0  0  0  0  0  0  0  0  0  0  0
   10.3312    1.3560    0.0000 C   0  0  0  0  0  0  0  0  0  0  0  0
    6.0010   -1.1440    0.0000 C   0  0  0  0  0  0  0  0  0  0  0  0
   12.1972    3.5880    0.0000 C   0  0  0  0  0  0  0  0  0  0  0  0
   12.6972    2.7220    0.0000 C   0  0  0  0  0  0  0  0  0  0  0  0
    5.1350    0.3560    0.0000 C   0  0  3  0  0  0  0  0  0  0  0  0
    9.4651   -0.1440    0.0000 C   0  0  3  0  0  0  0  0  0  0  0  0
    5.1350    1.3560    0.0000 C   0  0  3  0  0  0  0  0  0  0  0  0
   10.3312    0.3560    0.0000 C   0  0  0  0  0  0  0  0  0  0  0  0
    4.2690    1.8560    0.0000 C   0  0  3  0  0  0  0  0  0  0  0  0
   12.6972    0.9899    0.0000 C   0  0  0  0  0  0  0  0  0  0  0  0
    3.4030    1.3560    0.0000 C   0  0  3  0  0  0  0  0  0  0  0  0
    3.4030    0.3560    0.0000 C   0  0  0  0  0  0  0  0  0  0  0  0
    8.5991    0.3560    0.0000 C   0  0  0  0  0  0  0  0  0  0  0  0
   11.3049    4.1986    0.0000 H   0  0  0  0  0  0  0  0  0  0  0  0
   10.6146    3.8001    0.0000 H   0  0  0  0  0  0  0  0  0  0  0  0
    6.8671   -1.0240    0.0000 H   0  0  0  0  0  0  0  0  0  0  0  0
    6.8671   -3.2640    0.0000 H   0  0  0  0  0  0  0  0  0  0  0  0
    7.1962   -3.4540    0.0000 H   0  0  0  0  0  0  0  0  0  0  0  0
    8.5991   -3.2640    0.0000 H   0  0  0  0  0  0  0  0  0  0  0  0
    8.5991   -1.0240    0.0000 H   0  0  0  0  0  0  0  0  0  0  0  0
   10.1412    3.7589    0.0000 H   0  0  0  0  0  0  0  0  0  0  0  0
    9.2942    3.5320    0.0000 H   0  0  0  0  0  0  0  0  0  0  0  0
    9.5212    2.6850    0.0000 H   0  0  0  0  0  0  0  0  0  0  0  0
    9.6047    3.1590    0.0000 H   0  0  0  0  0  0  0  0  0  0  0  0
    9.1018    2.4407    0.0000 H   0  0  0  0  0  0  0  0  0  0  0  0
    9.8200    1.9378    0.0000 H   0  0  0  0  0  0  0  0  0  0  0  0
    9.7206    1.4636    0.0000 H   0  0  0  0  0  0  0  0  0  0  0  0
    5.3905   -1.0364    0.0000 H   0  0  0  0  0  0  0  0  0  0  0  0
    5.7890   -1.7266    0.0000 H   0  0  0  0  0  0  0  0  0  0  0  0
   13.3172    2.7220    0.0000 H   0  0  0  0  0  0  0  0  0  0  0  0
    5.6720    0.6660    0.0000 H   0  0  0  0  0  0  0  0  0  0  0  0
   10.0021   -0.4540    0.0000 H   0  0  0  0  0  0  0  0  0  0  0  0
    5.1350    1.9760    0.0000 H   0  0  0  0  0  0  0  0  0  0  0  0
   10.8681    0.0460    0.0000 H   0  0  0  0  0  0  0  0  0  0  0  0
    3.7320    2.1660    0.0000 H   0  0  0  0  0  0  0  0  0  0  0  0
   11.7341    0.5460    0.0000 H   0  0  0  0  0  0  0  0  0  0  0  0
   12.1603    0.6799    0.0000 H   0  0  0  0  0  0  0  0  0  0  0  0
   13.0072    0.4530    0.0000 H   0  0  0  0  0  0  0  0  0  0  0  0
   13.2341    1.2999    0.0000 H   0  0  0  0  0  0  0  0  0  0  0  0
    3.9399    1.0460    0.0000 H   0  0  0  0  0  0  0  0  0  0  0  0
    2.7924    0.4636    0.0000 H   0  0  0  0  0  0  0  0  0  0  0  0
    3.1909   -0.2266    0.0000 H   0  0  0  0  0  0  0  0  0  0  0  0
    5.4641   -2.8340    0.0000 H   0  0  0  0  0  0  0  0  0  0  0  0
    7.1962   -4.4540    0.0000 H   0  0  0  0  0  0  0  0  0  0  0  0
   10.0021   -2.8340    0.0000 H   0  0  0  0  0  0  0  0  0  0  0  0
    8.9091    0.8929    0.0000 H   0  0  0  0  0  0  0  0  0  0  0  0
    8.0622    0.6660    0.0000 H   0  0  0  0  0  0  0  0  0  0  0  0
    8.2891   -0.1810    0.0000 H   0  0  0  0  0  0  0  0  0  0  0  0
    6.0010    2.4760    0.0000 H   0  0  0  0  0  0  0  0  0  0  0  0
    3.7320    3.1660    0.0000 H   0  0  0  0  0  0  0  0  0  0  0  0
    2.0000    1.5460    0.0000 H   0  0  0  0  0  0  0  0  0  0  0  0
  1 16  1  0  0  0  0
  1 20  1  0  0  0  0
  2 20  1  0  0  0  0
  2 29  1  0  0  0  0
  3 14  1  0  0  0  0
  3 59  1  0  0  0  0
  4 25  1  0  0  0  0
  4 28  1  0  0  0  0
  5 17  1  0  0  0  0
  5 66  1  0  0  0  0
  6 18  1  0  0  0  0
  6 67  1  0  0  0  0
  7 19  1  0  0  0  0
  7 68  1  0  0  0  0
  8 28  1  0  0  0  0
  8 35  1  0  0  0  0
  9 30  1  0  0  0  0
  9 72  1  0  0  0  0
 10 26  2  0  0  0  0
 11 32  1  0  0  0  0
 11 73  1  0  0  0  0
 12 34  1  0  0  0  0
 12 74  1  0  0  0  0
 13 14  1  0  0  0  0
 13 15  1  0  0  0  0
 13 22  1  0  0  0  0
 13 23  1  0  0  0  0
 14 21  1  0  0  0  0
 14 24  1  0  0  0  0
 15 26  1  0  0  0  0
 15 37  1  0  0  0  0
 15 38  1  0  0  0  0
 16 17  1  0  0  0  0
 16 25  1  0  0  0  0
 16 39  1  0  0  0  0
 17 18  1  0  0  0  0
 17 40  1  0  0  0  0
 18 19  1  0  0  0  0
 18 41  1  0  0  0  0
 19 20  1  0  0  0  0
 19 42  1  0  0  0  0
 20 43  1  0  0  0  0
 21 27  2  0  0  0  0
 21 33  1  0  0  0  0
 22 44  1  0  0  0  0
 22 45  1  0  0  0  0
 22 46  1  0  0  0  0
 23 47  1  0  0  0  0
 23 48  1  0  0  0  0
 23 49  1  0  0  0  0
 24 31  2  0  0  0  0
 24 50  1  0  0  0  0
 25 51  1  0  0  0  0
 25 52  1  0  0  0  0
 26 27  1  0  0  0  0
 27 53  1  0  0  0  0
 28 30  1  0  0  0  0
 28 54  1  0  0  0  0
 29 31  1  0  0  0  0
 29 36  1  0  0  0  0
 29 55  1  0  0  0  0
 30 32  1  0  0  0  0
 30 56  1  0  0  0  0
 31 57  1  0  0  0  0
 32 34  1  0  0  0  0
 32 58  1  0  0  0  0
 33 60  1  0  0  0  0
 33 61  1  0  0  0  0
 33 62  1  0  0  0  0
 34 35  1  0  0  0  0
 34 63  1  0  0  0  0
 35 64  1  0  0  0  0
 35 65  1  0  0  0  0
 36 69  1  0  0  0  0
 36 70  1  0  0  0  0
 36 71  1  0  0  0  0
M  END
> <PUBCHEM_COMPOUND_CID>
14466051

> <PUBCHEM_COMPOUND_CANONICALIZED>
1

> <PUBCHEM_CACTVS_COMPLEXITY>
843

> <PUBCHEM_CACTVS_HBOND_ACCEPTOR>
12

> <PUBCHEM_CACTVS_HBOND_DONOR>
7

> <PUBCHEM_CACTVS_ROTATABLE_BOND>
7

> <PUBCHEM_CACTVS_SUBSKEYS>
AAADcfB4PAAAAAAAAAAAAAAAAAAAAAAAAAAkSIAAAAAAAAAAAAAAGgAACAAADlSwgAMCCAAABgCIAqBSAAAAAAAgAAAICAEAAEgRFBIAIQAiUAAFgAAPMQPK6AwPgAAAAAAAAAAAAAAAAAAAAAAAAAAAAA==

> <PUBCHEM_IUPAC_OPENEYE_NAME>
4-hydroxy-3,5,5-trimethyl-4-[(E)-3-[3,4,5-trihydroxy-6-[(3,4,5-trihydroxytetrahydropyran-2-yl)oxymethyl]tetrahydropyran-2-yl]oxybut-1-enyl]cyclohex-2-en-1-one

> <PUBCHEM_IUPAC_CAS_NAME>
4-hydroxy-3,5,5-trimethyl-4-[(E)-3-[[3,4,5-trihydroxy-6-[(3,4,5-trihydroxy-2-oxanyl)oxymethyl]-2-oxanyl]oxy]but-1-enyl]-1-cyclohex-2-enone

> <PUBCHEM_IUPAC_NAME_MARKUP>
4-hydroxy-3,5,5-trimethyl-4-[(<I>E</I>)-3-[3,4,5-trihydroxy-6-[(3,4,5-trihydroxyoxan-2-yl)oxymethyl]oxan-2-yl]oxybut-1-enyl]cyclohex-2-en-1-one

> <PUBCHEM_IUPAC_NAME>
4-hydroxy-3,5,5-trimethyl-4-[(E)-3-[3,4,5-trihydroxy-6-[(3,4,5-trihydroxyoxan-2-yl)oxymethyl]oxan-2-yl]oxybut-1-enyl]cyclohex-2-en-1-one

> <PUBCHEM_IUPAC_SYSTEMATIC_NAME>
3,5,5-trimethyl-4-oxidanyl-4-[(E)-3-[3,4,5-tris(oxidanyl)-6-[[3,4,5-tris(oxidanyl)oxan-2-yl]oxymethyl]oxan-2-yl]oxybut-1-enyl]cyclohex-2-en-1-one

> <PUBCHEM_IUPAC_TRADITIONAL_NAME>
4-hydroxy-3,5,5-trimethyl-4-[(E)-3-[3,4,5-trihydroxy-6-[(3,4,5-trihydroxytetrahydropyran-2-yl)oxymethyl]tetrahydropyran-2-yl]oxybut-1-enyl]cyclohex-2-en-1-one

> <PUBCHEM_IUPAC_INCHI>
InChI=1S/C24H38O12/c1-11-7-13(25)8-23(3,4)24(11,32)6-5-12(2)35-22-20(31)18(29)17(28)15(36-22)10-34-21-19(30)16(27)14(26)9-33-21/h5-7,12,14-22,26-32H,8-10H2,1-4H3/b6-5+

> <PUBCHEM_IUPAC_INCHIKEY>
ZHAMWJWQXSZIAQ-AATRIKPKSA-N

> <PUBCHEM_XLOGP3_AA>
-3.1

> <PUBCHEM_EXACT_MASS>
518.23632664

> <PUBCHEM_MOLECULAR_FORMULA>
C24H38O12

> <PUBCHEM_MOLECULAR_WEIGHT>
518.6

> <PUBCHEM_OPENEYE_CAN_SMILES>
CC1=CC(=O)CC(C1(C=CC(C)OC2C(C(C(C(O2)COC3C(C(C(CO3)O)O)O)O)O)O)O)(C)C

> <PUBCHEM_OPENEYE_ISO_SMILES>
CC1=CC(=O)CC(C1(/C=C/C(C)OC2C(C(C(C(O2)COC3C(C(C(CO3)O)O)O)O)O)O)O)(C)C

> <PUBCHEM_CACTVS_TPSA>
196

> <PUBCHEM_MONOISOTOPIC_WEIGHT>
518.23632664

> <PUBCHEM_TOTAL_CHARGE>
0

> <PUBCHEM_HEAVY_ATOM_COUNT>
36

> <PUBCHEM_ATOM_DEF_STEREO_COUNT>
0

> <PUBCHEM_ATOM_UDEF_STEREO_COUNT>
11

> <PUBCHEM_BOND_DEF_STEREO_COUNT>
1

> <PUBCHEM_BOND_UDEF_STEREO_COUNT>
0

> <PUBCHEM_ISOTOPIC_ATOM_COUNT>
0

> <PUBCHEM_COMPONENT_COUNT>
1

> <PUBCHEM_CACTVS_TAUTO_COUNT>
-1

> <PUBCHEM_COORDINATE_TYPE>
1
5
255

> <PUBCHEM_BONDANNOTATIONS>
32  11  3
34  12  3
16  25  3
20  2  3
29  36  3
14  3  3
28  4  3
17  5  3
18  6  3
19  7  3
30  9  3

$$$$
