 
  -OEChem-10192103592D

 52 55  0     1  0  0  0  0  0999 V2000
    4.7757   -1.2109    0.0000 O   0  0  0  0  0  0  0  0  0  0  0  0
    7.4987   -1.6929    0.0000 O   0  0  0  0  0  0  0  0  0  0  0  0
    3.7470    0.1134    0.0000 O   0  0  0  0  0  0  0  0  0  0  0  0
    6.4072   -2.1422    0.0000 O   0  0  0  0  0  0  0  0  0  0  0  0
    5.7726   -2.1125    0.0000 O   0  0  0  0  0  0  0  0  0  0  0  0
    9.0159   -0.7691    0.0000 O   0  0  0  0  0  0  0  0  0  0  0  0
    5.5275   -0.0882    0.0000 C   0  0  3  0  0  0  0  0  0  0  0  0
    6.4514   -0.4709    0.0000 C   0  0  3  0  0  0  0  0  0  0  0  0
    4.5512    0.1282    0.0000 C   0  0  0  0  0  0  0  0  0  0  0  0
    7.3752   -0.0882    0.0000 C   0  0  3  0  0  0  0  0  0  0  0  0
    5.1448    0.8357    0.0000 C   0  0  0  0  0  0  0  0  0  0  0  0
    4.5913   -0.4225    0.0000 C   0  0  0  0  0  0  0  0  0  0  0  0
    4.3775    1.1130    0.0000 C   0  0  0  0  0  0  0  0  0  0  0  0
    3.9776   -0.6909    0.0000 C   0  0  0  0  0  0  0  0  0  0  0  0
    7.7579    0.8357    0.0000 C   0  0  0  0  0  0  0  0  0  0  0  0
    5.8862   -1.2887    0.0000 C   0  0  0  0  0  0  0  0  0  0  0  0
    5.5275    1.7595    0.0000 C   0  0  0  0  0  0  0  0  0  0  0  0
    6.5319   -1.4617    0.0000 C   0  0  0  0  0  0  0  0  0  0  0  0
    7.3752    1.7595    0.0000 C   0  0  0  0  0  0  0  0  0  0  0  0
    6.4514    2.1422    0.0000 C   0  0  0  0  0  0  0  0  0  0  0  0
    8.0189   -0.8458    0.0000 C   0  0  0  0  0  0  0  0  0  0  0  0
    3.5584    1.6866    0.0000 C   0  0  0  0  0  0  0  0  0  0  0  0
    2.9928   -0.8645    0.0000 C   0  0  0  0  0  0  0  0  0  0  0  0
    2.5736    1.5130    0.0000 C   0  0  0  0  0  0  0  0  0  0  0  0
    2.1736   -0.2910    0.0000 C   0  0  0  0  0  0  0  0  0  0  0  0
    2.0000    0.6938    0.0000 C   0  0  0  0  0  0  0  0  0  0  0  0
    4.9991    0.5570    0.0000 H   0  0  0  0  0  0  0  0  0  0  0  0
    7.9877    0.0080    0.0000 H   0  0  0  0  0  0  0  0  0  0  0  0
    4.6529    1.2131    0.0000 H   0  0  0  0  0  0  0  0  0  0  0  0
    4.6529    0.4582    0.0000 H   0  0  0  0  0  0  0  0  0  0  0  0
    4.9952    1.0590    0.0000 H   0  0  0  0  0  0  0  0  0  0  0  0
    4.5896    1.6956    0.0000 H   0  0  0  0  0  0  0  0  0  0  0  0
    3.9235   -1.3085    0.0000 H   0  0  0  0  0  0  0  0  0  0  0  0
    4.5602   -0.9029    0.0000 H   0  0  0  0  0  0  0  0  0  0  0  0
    8.2498    0.4582    0.0000 H   0  0  0  0  0  0  0  0  0  0  0  0
    8.2498    1.2131    0.0000 H   0  0  0  0  0  0  0  0  0  0  0  0
    5.4466    2.3742    0.0000 H   0  0  0  0  0  0  0  0  0  0  0  0
    4.9128    1.8405    0.0000 H   0  0  0  0  0  0  0  0  0  0  0  0
    7.9899    1.8405    0.0000 H   0  0  0  0  0  0  0  0  0  0  0  0
    7.4562    2.3742    0.0000 H   0  0  0  0  0  0  0  0  0  0  0  0
    6.8288    2.6341    0.0000 H   0  0  0  0  0  0  0  0  0  0  0  0
    6.0739    2.6341    0.0000 H   0  0  0  0  0  0  0  0  0  0  0  0
    4.0333    2.0851    0.0000 H   0  0  0  0  0  0  0  0  0  0  0  0
    3.2964    2.2485    0.0000 H   0  0  0  0  0  0  0  0  0  0  0  0
    2.5178   -1.2630    0.0000 H   0  0  0  0  0  0  0  0  0  0  0  0
    3.2548   -1.4264    0.0000 H   0  0  0  0  0  0  0  0  0  0  0  0
    2.6276    2.1306    0.0000 H   0  0  0  0  0  0  0  0  0  0  0  0
    1.9910    1.7250    0.0000 H   0  0  0  0  0  0  0  0  0  0  0  0
    1.5560   -0.2370    0.0000 H   0  0  0  0  0  0  0  0  0  0  0  0
    1.9616   -0.8736    0.0000 H   0  0  0  0  0  0  0  0  0  0  0  0
    1.6015    1.1688    0.0000 H   0  0  0  0  0  0  0  0  0  0  0  0
    1.4381    0.4318    0.0000 H   0  0  0  0  0  0  0  0  0  0  0  0
  1 12  1  0  0  0  0
  1 16  1  0  0  0  0
  2 18  1  0  0  0  0
  2 21  1  0  0  0  0
  3 12  2  0  0  0  0
  4 16  2  0  0  0  0
  5 18  2  0  0  0  0
  6 21  2  0  0  0  0
  7  8  1  0  0  0  0
  7  9  1  0  0  0  0
  7 11  1  0  0  0  0
  7 12  1  0  0  0  0
  8 10  1  0  0  0  0
  8 16  1  0  0  0  0
  8 18  1  0  0  0  0
  9 13  1  0  0  0  0
  9 14  1  0  0  0  0
  9 27  1  0  0  0  0
 10 15  1  0  0  0  0
 10 21  1  0  0  0  0
 10 28  1  0  0  0  0
 11 17  1  0  0  0  0
 11 29  1  0  0  0  0
 11 30  1  0  0  0  0
 13 22  1  0  0  0  0
 13 31  1  0  0  0  0
 13 32  1  0  0  0  0
 14 23  1  0  0  0  0
 14 33  1  0  0  0  0
 14 34  1  0  0  0  0
 15 19  1  0  0  0  0
 15 35  1  0  0  0  0
 15 36  1  0  0  0  0
 17 20  1  0  0  0  0
 17 37  1  0  0  0  0
 17 38  1  0  0  0  0
 19 20  1  0  0  0  0
 19 39  1  0  0  0  0
 19 40  1  0  0  0  0
 20 41  1  0  0  0  0
 20 42  1  0  0  0  0
 22 24  1  0  0  0  0
 22 43  1  0  0  0  0
 22 44  1  0  0  0  0
 23 25  1  0  0  0  0
 23 45  1  0  0  0  0
 23 46  1  0  0  0  0
 24 26  1  0  0  0  0
 24 47  1  0  0  0  0
 24 48  1  0  0  0  0
 25 26  1  0  0  0  0
 25 49  1  0  0  0  0
 25 50  1  0  0  0  0
 26 51  1  0  0  0  0
 26 52  1  0  0  0  0
M  END
> <PUBCHEM_COMPOUND_CID>
91037095

> <PUBCHEM_COMPOUND_CANONICALIZED>
1

> <PUBCHEM_CACTVS_COMPLEXITY>
647

> <PUBCHEM_CACTVS_HBOND_ACCEPTOR>
6

> <PUBCHEM_CACTVS_HBOND_DONOR>
0

> <PUBCHEM_CACTVS_ROTATABLE_BOND>
1

> <PUBCHEM_CACTVS_SUBSKEYS>
AAADceB4OAAAAAAAAAAAAAAAAAAAASJAAAAAAAAAAAAYMAAAAAAAGgAAAAAADwCAgAAACAAABAAIAACQCAAAAAAAAAAAAAEAAAAAABYIAAACAAAFIAAAAAHL7viPgAAAAAAAAAAAAAAAAAAAAAAAAAAAAA==

> <PUBCHEM_IUPAC_OPENEYE_NAME>
5-cyclooctyl-3,13-dioxatricyclo[9.3.0.01,5]tetradecane-2,4,12,14-tetrone

> <PUBCHEM_IUPAC_CAS_NAME>
5-cyclooctyl-3,13-dioxatricyclo[9.3.0.01,5]tetradecane-2,4,12,14-tetrone

> <PUBCHEM_IUPAC_NAME_MARKUP>
5-cyclooctyl-3,13-dioxatricyclo[9.3.0.0<SUP>1,5</SUP>]tetradecane-2,4,12,14-tetrone

> <PUBCHEM_IUPAC_NAME>
5-cyclooctyl-3,13-dioxatricyclo[9.3.0.01,5]tetradecane-2,4,12,14-tetrone

> <PUBCHEM_IUPAC_SYSTEMATIC_NAME>
5-cyclooctyl-3,13-dioxatricyclo[9.3.0.01,5]tetradecane-2,4,12,14-tetrone

> <PUBCHEM_IUPAC_TRADITIONAL_NAME>
5-cyclooctyl-3,13-dioxatricyclo[9.3.0.01,5]tetradecane-2,4,12,14-diquinone

> <PUBCHEM_IUPAC_INCHI>
InChI=1S/C20H26O6/c21-15-14-11-7-4-8-12-19(13-9-5-2-1-3-6-10-13)16(22)26-18(24)20(14,19)17(23)25-15/h13-14H,1-12H2

> <PUBCHEM_IUPAC_INCHIKEY>
YHJLAYMWZIQISL-UHFFFAOYSA-N

> <PUBCHEM_XLOGP3_AA>
4.8

> <PUBCHEM_EXACT_MASS>
362.17293854

> <PUBCHEM_MOLECULAR_FORMULA>
C20H26O6

> <PUBCHEM_MOLECULAR_WEIGHT>
362.4

> <PUBCHEM_OPENEYE_CAN_SMILES>
C1CCCC(CCC1)C23CCCCCC4C2(C(=O)OC4=O)C(=O)OC3=O

> <PUBCHEM_OPENEYE_ISO_SMILES>
C1CCCC(CCC1)C23CCCCCC4C2(C(=O)OC4=O)C(=O)OC3=O

> <PUBCHEM_CACTVS_TPSA>
86.7

> <PUBCHEM_MONOISOTOPIC_WEIGHT>
362.17293854

> <PUBCHEM_TOTAL_CHARGE>
0

> <PUBCHEM_HEAVY_ATOM_COUNT>
26

> <PUBCHEM_ATOM_DEF_STEREO_COUNT>
0

> <PUBCHEM_ATOM_UDEF_STEREO_COUNT>
3

> <PUBCHEM_BOND_DEF_STEREO_COUNT>
0

> <PUBCHEM_BOND_UDEF_STEREO_COUNT>
0

> <PUBCHEM_ISOTOPIC_ATOM_COUNT>
0

> <PUBCHEM_COMPONENT_COUNT>
1

> <PUBCHEM_CACTVS_TAUTO_COUNT>
-1

> <PUBCHEM_COORDINATE_TYPE>
1
5
255

> <PUBCHEM_BONDANNOTATIONS>
10  15  3
7  9  3
8  10  3

$$$$
