 
  -OEChem-10192103482D

102104  0     1  0  0  0  0  0999 V2000
   12.3923    2.0000    0.0000 O   0  0  0  0  0  0  0  0  0  0  0  0
    5.4641   -2.0000    0.0000 O   0  0  0  0  0  0  0  0  0  0  0  0
   12.3923    5.0000    0.0000 O   0  0  0  0  0  0  0  0  0  0  0  0
    5.4641   -5.0000    0.0000 O   0  0  0  0  0  0  0  0  0  0  0  0
   14.1244    4.0000    0.0000 O   0  0  0  0  0  0  0  0  0  0  0  0
    3.7320   -4.0000    0.0000 O   0  0  0  0  0  0  0  0  0  0  0  0
   10.6603    4.0000    0.0000 O   0  0  0  0  0  0  0  0  0  0  0  0
    7.1962   -4.0000    0.0000 O   0  0  0  0  0  0  0  0  0  0  0  0
   10.6603    2.0000    0.0000 O   0  0  0  0  0  0  0  0  0  0  0  0
    7.1962   -2.0000    0.0000 O   0  0  0  0  0  0  0  0  0  0  0  0
   14.1244    1.0000    0.0000 O   0  0  0  0  0  0  0  0  0  0  0  0
    3.7320   -1.0000    0.0000 O   0  0  0  0  0  0  0  0  0  0  0  0
   14.1244    5.0000    0.0000 O   0  0  0  0  0  0  0  0  0  0  0  0
    3.7320   -5.0000    0.0000 O   0  0  0  0  0  0  0  0  0  0  0  0
   14.9904    2.5000    0.0000 O   0  0  0  0  0  0  0  0  0  0  0  0
    2.8660   -2.5000    0.0000 O   0  0  0  0  0  0  0  0  0  0  0  0
   11.5263    5.5000    0.0000 O   0  0  0  0  0  0  0  0  0  0  0  0
    8.0622   -2.5000    0.0000 O   0  0  0  0  0  0  0  0  0  0  0  0
   15.8564    1.0000    0.0000 O   0  0  0  0  0  0  0  0  0  0  0  0
    2.0000   -1.0000    0.0000 O   0  0  0  0  0  0  0  0  0  0  0  0
   12.3923    4.0000    0.0000 C   0  0  1  0  0  0  0  0  0  0  0  0
    5.4641   -4.0000    0.0000 C   0  0  1  0  0  0  0  0  0  0  0  0
   13.2583    3.5000    0.0000 C   0  0  1  0  0  0  0  0  0  0  0  0
    4.5981   -3.5000    0.0000 C   0  0  1  0  0  0  0  0  0  0  0  0
   11.5263    3.5000    0.0000 C   0  0  1  0  0  0  0  0  0  0  0  0
    6.3301   -3.5000    0.0000 C   0  0  1  0  0  0  0  0  0  0  0  0
   13.2583    2.5000    0.0000 C   0  0  1  0  0  0  0  0  0  0  0  0
    4.5981   -2.5000    0.0000 C   0  0  1  0  0  0  0  0  0  0  0  0
   11.5263    2.5000    0.0000 C   0  0  2  0  0  0  0  0  0  0  0  0
    6.3301   -2.5000    0.0000 C   0  0  2  0  0  0  0  0  0  0  0  0
   14.1244    2.0000    0.0000 C   0  0  0  0  0  0  0  0  0  0  0  0
    3.7320   -2.0000    0.0000 C   0  0  0  0  0  0  0  0  0  0  0  0
   10.6603    1.0000    0.0000 C   0  0  0  0  0  0  0  0  0  0  0  0
    7.1962   -1.0000    0.0000 C   0  0  0  0  0  0  0  0  0  0  0  0
   13.2583    5.5000    0.0000 C   0  0  0  0  0  0  0  0  0  0  0  0
    4.5981   -5.5000    0.0000 C   0  0  0  0  0  0  0  0  0  0  0  0
    9.7942    0.5000    0.0000 C   0  0  0  0  0  0  0  0  0  0  0  0
    8.0622   -0.5000    0.0000 C   0  0  0  0  0  0  0  0  0  0  0  0
   14.9904    3.5000    0.0000 C   0  0  0  0  0  0  0  0  0  0  0  0
    2.8660   -3.5000    0.0000 C   0  0  0  0  0  0  0  0  0  0  0  0
   10.6603    5.0000    0.0000 C   0  0  0  0  0  0  0  0  0  0  0  0
    8.0622   -3.5000    0.0000 C   0  0  0  0  0  0  0  0  0  0  0  0
    8.9282    1.0000    0.0000 C   0  0  0  0  0  0  0  0  0  0  0  0
    8.0622    0.5000    0.0000 C   0  0  0  0  0  0  0  0  0  0  0  0
    9.7942   -0.5000    0.0000 C   0  0  0  0  0  0  0  0  0  0  0  0
    8.9282   -1.0000    0.0000 C   0  0  0  0  0  0  0  0  0  0  0  0
   13.2583    6.5000    0.0000 C   0  0  0  0  0  0  0  0  0  0  0  0
    4.5981   -6.5000    0.0000 C   0  0  0  0  0  0  0  0  0  0  0  0
   15.8564    4.0000    0.0000 C   0  0  0  0  0  0  0  0  0  0  0  0
    2.0000   -4.0000    0.0000 C   0  0  0  0  0  0  0  0  0  0  0  0
   14.9904    0.5000    0.0000 C   0  0  0  0  0  0  0  0  0  0  0  0
    2.8660   -0.5000    0.0000 C   0  0  0  0  0  0  0  0  0  0  0  0
    9.7942    5.5000    0.0000 C   0  0  0  0  0  0  0  0  0  0  0  0
    8.9282   -4.0000    0.0000 C   0  0  0  0  0  0  0  0  0  0  0  0
   14.9904   -0.5000    0.0000 C   0  0  0  0  0  0  0  0  0  0  0  0
    2.8660    0.5000    0.0000 C   0  0  0  0  0  0  0  0  0  0  0  0
   12.9292    4.3100    0.0000 H   0  0  0  0  0  0  0  0  0  0  0  0
    4.9272   -4.3100    0.0000 H   0  0  0  0  0  0  0  0  0  0  0  0
   13.7953    3.1900    0.0000 H   0  0  0  0  0  0  0  0  0  0  0  0
    4.5981   -4.1200    0.0000 H   0  0  0  0  0  0  0  0  0  0  0  0
   11.5263    4.1200    0.0000 H   0  0  0  0  0  0  0  0  0  0  0  0
    6.3301   -4.1200    0.0000 H   0  0  0  0  0  0  0  0  0  0  0  0
   13.2583    1.8800    0.0000 H   0  0  0  0  0  0  0  0  0  0  0  0
    4.5981   -1.8800    0.0000 H   0  0  0  0  0  0  0  0  0  0  0  0
   10.9893    2.8100    0.0000 H   0  0  0  0  0  0  0  0  0  0  0  0
    6.3301   -1.8800    0.0000 H   0  0  0  0  0  0  0  0  0  0  0  0
   14.7349    1.8923    0.0000 H   0  0  0  0  0  0  0  0  0  0  0  0
   14.3364    2.5826    0.0000 H   0  0  0  0  0  0  0  0  0  0  0  0
    3.1215   -1.8923    0.0000 H   0  0  0  0  0  0  0  0  0  0  0  0
    3.5200   -2.5826    0.0000 H   0  0  0  0  0  0  0  0  0  0  0  0
   10.8723    0.4174    0.0000 H   0  0  0  0  0  0  0  0  0  0  0  0
   11.2708    1.1077    0.0000 H   0  0  0  0  0  0  0  0  0  0  0  0
    6.9841   -0.4174    0.0000 H   0  0  0  0  0  0  0  0  0  0  0  0
    6.5856   -1.1077    0.0000 H   0  0  0  0  0  0  0  0  0  0  0  0
    8.9282    1.6200    0.0000 H   0  0  0  0  0  0  0  0  0  0  0  0
    7.5252    0.8100    0.0000 H   0  0  0  0  0  0  0  0  0  0  0  0
   10.3312   -0.8100    0.0000 H   0  0  0  0  0  0  0  0  0  0  0  0
    8.9282   -1.6200    0.0000 H   0  0  0  0  0  0  0  0  0  0  0  0
   13.8783    6.5000    0.0000 H   0  0  0  0  0  0  0  0  0  0  0  0
   13.2583    7.1200    0.0000 H   0  0  0  0  0  0  0  0  0  0  0  0
   12.6383    6.5000    0.0000 H   0  0  0  0  0  0  0  0  0  0  0  0
    3.9781   -6.5000    0.0000 H   0  0  0  0  0  0  0  0  0  0  0  0
    4.5981   -7.1200    0.0000 H   0  0  0  0  0  0  0  0  0  0  0  0
    5.2181   -6.5000    0.0000 H   0  0  0  0  0  0  0  0  0  0  0  0
   16.1664    3.4631    0.0000 H   0  0  0  0  0  0  0  0  0  0  0  0
   16.3933    4.3100    0.0000 H   0  0  0  0  0  0  0  0  0  0  0  0
   15.5464    4.5369    0.0000 H   0  0  0  0  0  0  0  0  0  0  0  0
    1.6900   -3.4631    0.0000 H   0  0  0  0  0  0  0  0  0  0  0  0
    1.4631   -4.3100    0.0000 H   0  0  0  0  0  0  0  0  0  0  0  0
    2.3100   -4.5369    0.0000 H   0  0  0  0  0  0  0  0  0  0  0  0
   10.1042    6.0369    0.0000 H   0  0  0  0  0  0  0  0  0  0  0  0
    9.2573    5.8100    0.0000 H   0  0  0  0  0  0  0  0  0  0  0  0
    9.4842    4.9631    0.0000 H   0  0  0  0  0  0  0  0  0  0  0  0
    8.6182   -4.5369    0.0000 H   0  0  0  0  0  0  0  0  0  0  0  0
    9.4651   -4.3100    0.0000 H   0  0  0  0  0  0  0  0  0  0  0  0
    9.2382   -3.4631    0.0000 H   0  0  0  0  0  0  0  0  0  0  0  0
   14.3704   -0.5000    0.0000 H   0  0  0  0  0  0  0  0  0  0  0  0
   14.9904   -1.1200    0.0000 H   0  0  0  0  0  0  0  0  0  0  0  0
   15.6104   -0.5000    0.0000 H   0  0  0  0  0  0  0  0  0  0  0  0
    3.4860    0.5000    0.0000 H   0  0  0  0  0  0  0  0  0  0  0  0
    2.8660    1.1200    0.0000 H   0  0  0  0  0  0  0  0  0  0  0  0
    2.2460    0.5000    0.0000 H   0  0  0  0  0  0  0  0  0  0  0  0
  1 27  1  0  0  0  0
  1 29  1  0  0  0  0
  2 28  1  0  0  0  0
  2 30  1  0  0  0  0
 21  3  1  1  0  0  0
  3 35  1  0  0  0  0
 22  4  1  1  0  0  0
  4 36  1  0  0  0  0
 23  5  1  6  0  0  0
  5 39  1  0  0  0  0
 24  6  1  6  0  0  0
  6 40  1  0  0  0  0
 25  7  1  1  0  0  0
  7 41  1  0  0  0  0
 26  8  1  1  0  0  0
  8 42  1  0  0  0  0
 29  9  1  6  0  0  0
  9 33  1  0  0  0  0
 30 10  1  6  0  0  0
 10 34  1  0  0  0  0
 11 31  1  0  0  0  0
 11 51  1  0  0  0  0
 12 32  1  0  0  0  0
 12 52  1  0  0  0  0
 13 35  2  0  0  0  0
 14 36  2  0  0  0  0
 15 39  2  0  0  0  0
 16 40  2  0  0  0  0
 17 41  2  0  0  0  0
 18 42  2  0  0  0  0
 19 51  2  0  0  0  0
 20 52  2  0  0  0  0
 21 23  1  0  0  0  0
 21 25  1  0  0  0  0
 21 57  1  0  0  0  0
 22 24  1  0  0  0  0
 22 26  1  0  0  0  0
 22 58  1  0  0  0  0
 23 27  1  0  0  0  0
 23 59  1  0  0  0  0
 24 28  1  0  0  0  0
 24 60  1  0  0  0  0
 25 29  1  0  0  0  0
 25 61  1  0  0  0  0
 26 30  1  0  0  0  0
 26 62  1  0  0  0  0
 27 31  1  1  0  0  0
 27 63  1  0  0  0  0
 28 32  1  1  0  0  0
 28 64  1  0  0  0  0
 29 65  1  0  0  0  0
 30 66  1  0  0  0  0
 31 67  1  0  0  0  0
 31 68  1  0  0  0  0
 32 69  1  0  0  0  0
 32 70  1  0  0  0  0
 33 37  1  0  0  0  0
 33 71  1  0  0  0  0
 33 72  1  0  0  0  0
 34 38  1  0  0  0  0
 34 73  1  0  0  0  0
 34 74  1  0  0  0  0
 35 47  1  0  0  0  0
 36 48  1  0  0  0  0
 37 43  2  0  0  0  0
 37 45  1  0  0  0  0
 38 44  2  0  0  0  0
 38 46  1  0  0  0  0
 39 49  1  0  0  0  0
 40 50  1  0  0  0  0
 41 53  1  0  0  0  0
 42 54  1  0  0  0  0
 43 44  1  0  0  0  0
 43 75  1  0  0  0  0
 44 76  1  0  0  0  0
 45 46  2  0  0  0  0
 45 77  1  0  0  0  0
 46 78  1  0  0  0  0
 47 79  1  0  0  0  0
 47 80  1  0  0  0  0
 47 81  1  0  0  0  0
 48 82  1  0  0  0  0
 48 83  1  0  0  0  0
 48 84  1  0  0  0  0
 49 85  1  0  0  0  0
 49 86  1  0  0  0  0
 49 87  1  0  0  0  0
 50 88  1  0  0  0  0
 50 89  1  0  0  0  0
 50 90  1  0  0  0  0
 51 55  1  0  0  0  0
 52 56  1  0  0  0  0
 53 91  1  0  0  0  0
 53 92  1  0  0  0  0
 53 93  1  0  0  0  0
 54 94  1  0  0  0  0
 54 95  1  0  0  0  0
 54 96  1  0  0  0  0
 55 97  1  0  0  0  0
 55 98  1  0  0  0  0
 55 99  1  0  0  0  0
 56100  1  0  0  0  0
 56101  1  0  0  0  0
 56102  1  0  0  0  0
M  END
> <PUBCHEM_COMPOUND_CID>
10652906

> <PUBCHEM_COMPOUND_CANONICALIZED>
1

> <PUBCHEM_CACTVS_COMPLEXITY>
1300

> <PUBCHEM_CACTVS_HBOND_ACCEPTOR>
20

> <PUBCHEM_CACTVS_HBOND_DONOR>
0

> <PUBCHEM_CACTVS_ROTATABLE_BOND>
24

> <PUBCHEM_CACTVS_SUBSKEYS>
AAADcfB8PgAAAAAAAAAAAAAAAAAAAAAAAAA0SIAAAAAAAAABAAAAGgAAAAAADBSwmAMyCIAABACIAiDSCAACAAAgAAAIiAAACIgZJiKAMRiiMAAlwAEOqAfA4DwOQAAAAAAAAACAAAAAAAAAAAAAAAAAAA==

> <PUBCHEM_IUPAC_OPENEYE_NAME>
[(2R,3R,4S,5S,6S)-3,4,5-triacetoxy-6-[[4-[[(2S,3S,4S,5R,6R)-3,4,5-triacetoxy-6-(acetoxymethyl)tetrahydropyran-2-yl]oxymethyl]phenyl]methoxy]tetrahydropyran-2-yl]methyl acetate

> <PUBCHEM_IUPAC_CAS_NAME>
acetic acid [(2R,3R,4S,5S,6S)-3,4,5-triacetyloxy-6-[[4-[[(2S,3S,4S,5R,6R)-3,4,5-triacetyloxy-6-(acetyloxymethyl)-2-oxanyl]oxymethyl]phenyl]methoxy]-2-oxanyl]methyl ester

> <PUBCHEM_IUPAC_NAME_MARKUP>
[(2<I>R</I>,3<I>R</I>,4<I>S</I>,5<I>S</I>,6<I>S</I>)-3,4,5-triacetyloxy-6-[[4-[[(2<I>S</I>,3<I>S</I>,4<I>S</I>,5<I>R</I>,6<I>R</I>)-3,4,5-triacetyloxy-6-(acetyloxymethyl)oxan-2-yl]oxymethyl]phenyl]methoxy]oxan-2-yl]methyl acetate

> <PUBCHEM_IUPAC_NAME>
[(2R,3R,4S,5S,6S)-3,4,5-triacetyloxy-6-[[4-[[(2S,3S,4S,5R,6R)-3,4,5-triacetyloxy-6-(acetyloxymethyl)oxan-2-yl]oxymethyl]phenyl]methoxy]oxan-2-yl]methyl acetate

> <PUBCHEM_IUPAC_SYSTEMATIC_NAME>
[(2R,3R,4S,5S,6S)-3,4,5-triacetyloxy-6-[[4-[[(2S,3S,4S,5R,6R)-3,4,5-triacetyloxy-6-(acetyloxymethyl)oxan-2-yl]oxymethyl]phenyl]methoxy]oxan-2-yl]methyl ethanoate

> <PUBCHEM_IUPAC_TRADITIONAL_NAME>
acetic acid [(2R,3R,4S,5S,6S)-3,4,5-triacetoxy-6-[4-[[(2S,3S,4S,5R,6R)-3,4,5-triacetoxy-6-(acetoxymethyl)tetrahydropyran-2-yl]oxymethyl]benzyl]oxy-tetrahydropyran-2-yl]methyl ester

> <PUBCHEM_IUPAC_INCHI>
InChI=1S/C36H46O20/c1-17(37)45-15-27-29(49-19(3)39)31(51-21(5)41)33(53-23(7)43)35(55-27)47-13-25-9-11-26(12-10-25)14-48-36-34(54-24(8)44)32(52-22(6)42)30(50-20(4)40)28(56-36)16-46-18(2)38/h9-12,27-36H,13-16H2,1-8H3/t27-,28-,29-,30-,31+,32+,33+,34+,35+,36+/m1/s1

> <PUBCHEM_IUPAC_INCHIKEY>
DHEIEWOMACBBHO-DBRFPMMXSA-N

> <PUBCHEM_XLOGP3_AA>
0.5

> <PUBCHEM_EXACT_MASS>
798.25824385

> <PUBCHEM_MOLECULAR_FORMULA>
C36H46O20

> <PUBCHEM_MOLECULAR_WEIGHT>
798.7

> <PUBCHEM_OPENEYE_CAN_SMILES>
CC(=O)OCC1C(C(C(C(O1)OCC2=CC=C(C=C2)COC3C(C(C(C(O3)COC(=O)C)OC(=O)C)OC(=O)C)OC(=O)C)OC(=O)C)OC(=O)C)OC(=O)C

> <PUBCHEM_OPENEYE_ISO_SMILES>
CC(=O)OC[C@@H]1[C@H]([C@@H]([C@@H]([C@H](O1)OCC2=CC=C(C=C2)CO[C@@H]3[C@H]([C@H]([C@@H]([C@H](O3)COC(=O)C)OC(=O)C)OC(=O)C)OC(=O)C)OC(=O)C)OC(=O)C)OC(=O)C

> <PUBCHEM_CACTVS_TPSA>
247

> <PUBCHEM_MONOISOTOPIC_WEIGHT>
798.25824385

> <PUBCHEM_TOTAL_CHARGE>
0

> <PUBCHEM_HEAVY_ATOM_COUNT>
56

> <PUBCHEM_ATOM_DEF_STEREO_COUNT>
10

> <PUBCHEM_ATOM_UDEF_STEREO_COUNT>
0

> <PUBCHEM_BOND_DEF_STEREO_COUNT>
0

> <PUBCHEM_BOND_UDEF_STEREO_COUNT>
0

> <PUBCHEM_ISOTOPIC_ATOM_COUNT>
0

> <PUBCHEM_COMPONENT_COUNT>
1

> <PUBCHEM_CACTVS_TAUTO_COUNT>
-1

> <PUBCHEM_COORDINATE_TYPE>
1
5
255

> <PUBCHEM_BONDANNOTATIONS>
30  10  6
27  31  5
28  32  5
21  3  5
37  43  8
37  45  8
38  44  8
38  46  8
22  4  5
43  44  8
45  46  8
23  5  6
24  6  6
25  7  5
26  8  5
29  9  6

$$$$
