 
  -OEChem-10192103562D

 71 75  0     0  0  0  0  0  0999 V2000
   14.1244   -2.6900    0.0000 S   0  0  0  0  0  0  0  0  0  0  0  0
   15.8564    3.3100    0.0000 O   0  0  0  0  0  0  0  0  0  0  0  0
    2.0000   -0.6900    0.0000 O   0  0  0  0  0  0  0  0  0  0  0  0
   14.9904   -3.1900    0.0000 O   0  0  0  0  0  0  0  0  0  0  0  0
   13.6244   -3.5560    0.0000 O   0  0  0  0  0  0  0  0  0  0  0  0
   14.6244   -1.8240    0.0000 O   0  0  0  0  0  0  0  0  0  0  0  0
   14.1244    2.3100    0.0000 N   0  0  0  0  0  0  0  0  0  0  0  0
    3.7320    0.3100    0.0000 N   0  0  0  0  0  0  0  0  0  0  0  0
   13.2583    0.8100    0.0000 N   0  0  0  0  0  0  0  0  0  0  0  0
   12.3923    2.3100    0.0000 N   0  0  0  0  0  0  0  0  0  0  0  0
    5.4641    0.3100    0.0000 N   0  0  0  0  0  0  0  0  0  0  0  0
    4.5981    1.8100    0.0000 N   0  0  0  0  0  0  0  0  0  0  0  0
   12.3923   -0.6900    0.0000 N   0  0  0  0  0  0  0  0  0  0  0  0
   11.5263    0.8100    0.0000 N   0  0  0  0  0  0  0  0  0  0  0  0
   10.6603    2.3100    0.0000 N   0  0  0  0  0  0  0  0  0  0  0  0
    7.1962    0.3100    0.0000 N   0  0  0  0  0  0  0  0  0  0  0  0
    6.3301    1.8100    0.0000 N   0  0  0  0  0  0  0  0  0  0  0  0
   14.9904    1.8100    0.0000 C   0  0  0  0  0  0  0  0  0  0  0  0
   14.1244    3.3100    0.0000 C   0  0  0  0  0  0  0  0  0  0  0  0
    3.7320   -0.6900    0.0000 C   0  0  0  0  0  0  0  0  0  0  0  0
    2.8660    0.8100    0.0000 C   0  0  0  0  0  0  0  0  0  0  0  0
   15.8564    2.3100    0.0000 C   0  0  0  0  0  0  0  0  0  0  0  0
   14.9904    3.8100    0.0000 C   0  0  0  0  0  0  0  0  0  0  0  0
    2.8660   -1.1900    0.0000 C   0  0  0  0  0  0  0  0  0  0  0  0
    2.0000    0.3100    0.0000 C   0  0  0  0  0  0  0  0  0  0  0  0
   13.2583    1.8100    0.0000 C   0  0  0  0  0  0  0  0  0  0  0  0
    4.5981    0.8100    0.0000 C   0  0  0  0  0  0  0  0  0  0  0  0
   12.3923    0.3100    0.0000 C   0  0  0  0  0  0  0  0  0  0  0  0
   11.5263    1.8100    0.0000 C   0  0  0  0  0  0  0  0  0  0  0  0
   13.2583   -1.1900    0.0000 C   0  0  0  0  0  0  0  0  0  0  0  0
    6.3301    0.8100    0.0000 C   0  0  0  0  0  0  0  0  0  0  0  0
   13.2583   -2.1900    0.0000 C   0  0  0  0  0  0  0  0  0  0  0  0
    5.4641    2.3100    0.0000 C   0  0  0  0  0  0  0  0  0  0  0  0
    9.7942    1.8100    0.0000 C   0  0  0  0  0  0  0  0  0  0  0  0
    8.0622    0.8100    0.0000 C   0  0  0  0  0  0  0  0  0  0  0  0
    8.9282    2.3100    0.0000 C   0  0  0  0  0  0  0  0  0  0  0  0
    9.7942    0.8100    0.0000 C   0  0  0  0  0  0  0  0  0  0  0  0
    8.0622    1.8100    0.0000 C   0  0  0  0  0  0  0  0  0  0  0  0
    8.9282    0.3100    0.0000 C   0  0  0  0  0  0  0  0  0  0  0  0
    5.4641    3.3100    0.0000 C   0  0  0  0  0  0  0  0  0  0  0  0
   14.5919    1.3350    0.0000 H   0  0  0  0  0  0  0  0  0  0  0  0
   15.3889    1.3350    0.0000 H   0  0  0  0  0  0  0  0  0  0  0  0
   13.9123    3.8926    0.0000 H   0  0  0  0  0  0  0  0  0  0  0  0
   13.5138    3.2023    0.0000 H   0  0  0  0  0  0  0  0  0  0  0  0
    3.9441   -1.2726    0.0000 H   0  0  0  0  0  0  0  0  0  0  0  0
    4.3426   -0.5823    0.0000 H   0  0  0  0  0  0  0  0  0  0  0  0
    3.2646    1.2850    0.0000 H   0  0  0  0  0  0  0  0  0  0  0  0
    2.4675    1.2850    0.0000 H   0  0  0  0  0  0  0  0  0  0  0  0
   16.0685    1.7274    0.0000 H   0  0  0  0  0  0  0  0  0  0  0  0
   16.4670    2.4177    0.0000 H   0  0  0  0  0  0  0  0  0  0  0  0
   15.3889    4.2850    0.0000 H   0  0  0  0  0  0  0  0  0  0  0  0
   14.5919    4.2850    0.0000 H   0  0  0  0  0  0  0  0  0  0  0  0
    2.4675   -1.6650    0.0000 H   0  0  0  0  0  0  0  0  0  0  0  0
    3.2646   -1.6650    0.0000 H   0  0  0  0  0  0  0  0  0  0  0  0
    1.7880    0.8926    0.0000 H   0  0  0  0  0  0  0  0  0  0  0  0
    1.3894    0.2023    0.0000 H   0  0  0  0  0  0  0  0  0  0  0  0
   13.8689   -1.2977    0.0000 H   0  0  0  0  0  0  0  0  0  0  0  0
   13.4704   -0.6074    0.0000 H   0  0  0  0  0  0  0  0  0  0  0  0
   11.8554   -1.0000    0.0000 H   0  0  0  0  0  0  0  0  0  0  0  0
   12.6477   -2.0823    0.0000 H   0  0  0  0  0  0  0  0  0  0  0  0
   13.0463   -2.7726    0.0000 H   0  0  0  0  0  0  0  0  0  0  0  0
   10.6603    2.9300    0.0000 H   0  0  0  0  0  0  0  0  0  0  0  0
    7.1962   -0.3100    0.0000 H   0  0  0  0  0  0  0  0  0  0  0  0
    8.9282    2.9300    0.0000 H   0  0  0  0  0  0  0  0  0  0  0  0
   10.3312    0.5000    0.0000 H   0  0  0  0  0  0  0  0  0  0  0  0
    7.5252    2.1200    0.0000 H   0  0  0  0  0  0  0  0  0  0  0  0
    8.9282   -0.3100    0.0000 H   0  0  0  0  0  0  0  0  0  0  0  0
    6.0841    3.3100    0.0000 H   0  0  0  0  0  0  0  0  0  0  0  0
    5.4641    3.9300    0.0000 H   0  0  0  0  0  0  0  0  0  0  0  0
    4.8441    3.3100    0.0000 H   0  0  0  0  0  0  0  0  0  0  0  0
   14.9904   -3.8100    0.0000 H   0  0  0  0  0  0  0  0  0  0  0  0
  1  4  1  0  0  0  0
  1  5  2  0  0  0  0
  1  6  2  0  0  0  0
  1 32  1  0  0  0  0
  2 22  1  0  0  0  0
  2 23  1  0  0  0  0
  3 24  1  0  0  0  0
  3 25  1  0  0  0  0
  4 71  1  0  0  0  0
  7 18  1  0  0  0  0
  7 19  1  0  0  0  0
  7 26  1  0  0  0  0
  8 20  1  0  0  0  0
  8 21  1  0  0  0  0
  8 27  1  0  0  0  0
  9 26  2  0  0  0  0
  9 28  1  0  0  0  0
 10 26  1  0  0  0  0
 10 29  2  0  0  0  0
 11 27  1  0  0  0  0
 11 31  2  0  0  0  0
 12 27  2  0  0  0  0
 12 33  1  0  0  0  0
 13 28  1  0  0  0  0
 13 30  1  0  0  0  0
 13 59  1  0  0  0  0
 14 28  2  0  0  0  0
 14 29  1  0  0  0  0
 15 29  1  0  0  0  0
 15 34  1  0  0  0  0
 15 62  1  0  0  0  0
 16 31  1  0  0  0  0
 16 35  1  0  0  0  0
 16 63  1  0  0  0  0
 17 31  1  0  0  0  0
 17 33  2  0  0  0  0
 18 22  1  0  0  0  0
 18 41  1  0  0  0  0
 18 42  1  0  0  0  0
 19 23  1  0  0  0  0
 19 43  1  0  0  0  0
 19 44  1  0  0  0  0
 20 24  1  0  0  0  0
 20 45  1  0  0  0  0
 20 46  1  0  0  0  0
 21 25  1  0  0  0  0
 21 47  1  0  0  0  0
 21 48  1  0  0  0  0
 22 49  1  0  0  0  0
 22 50  1  0  0  0  0
 23 51  1  0  0  0  0
 23 52  1  0  0  0  0
 24 53  1  0  0  0  0
 24 54  1  0  0  0  0
 25 55  1  0  0  0  0
 25 56  1  0  0  0  0
 30 32  1  0  0  0  0
 30 57  1  0  0  0  0
 30 58  1  0  0  0  0
 32 60  1  0  0  0  0
 32 61  1  0  0  0  0
 33 40  1  0  0  0  0
 34 36  2  0  0  0  0
 34 37  1  0  0  0  0
 35 38  2  0  0  0  0
 35 39  1  0  0  0  0
 36 38  1  0  0  0  0
 36 64  1  0  0  0  0
 37 39  2  0  0  0  0
 37 65  1  0  0  0  0
 38 66  1  0  0  0  0
 39 67  1  0  0  0  0
 40 68  1  0  0  0  0
 40 69  1  0  0  0  0
 40 70  1  0  0  0  0
M  END
> <PUBCHEM_COMPOUND_CID>
59172484

> <PUBCHEM_COMPOUND_CANONICALIZED>
1

> <PUBCHEM_CACTVS_COMPLEXITY>
866

> <PUBCHEM_CACTVS_HBOND_ACCEPTOR>
16

> <PUBCHEM_CACTVS_HBOND_DONOR>
4

> <PUBCHEM_CACTVS_ROTATABLE_BOND>
10

> <PUBCHEM_CACTVS_SUBSKEYS>
AAADceB7+ABAAAAAAAAAAAAAAAAAAAAAAAA8WLFiAAAAAAAB8AAAHgQQCAAACAjl0waz0IfIFIKgACZiZHDCgAkhAqAJiIAYZIiKKCLAmZGHIAhokALYyCcQAAAAAACAAAAAAAAAAQAAAAAAAAAAAAAAAA==

> <PUBCHEM_IUPAC_OPENEYE_NAME>
2-[[4-[4-[(4-methyl-6-morpholino-1,3,5-triazin-2-yl)amino]anilino]-6-morpholino-1,3,5-triazin-2-yl]amino]ethanesulfonic acid

> <PUBCHEM_IUPAC_CAS_NAME>
2-[[4-[4-[[4-methyl-6-(4-morpholinyl)-1,3,5-triazin-2-yl]amino]anilino]-6-(4-morpholinyl)-1,3,5-triazin-2-yl]amino]ethanesulfonic acid

> <PUBCHEM_IUPAC_NAME_MARKUP>
2-[[4-[4-[(4-methyl-6-morpholin-4-yl-1,3,5-triazin-2-yl)amino]anilino]-6-morpholin-4-yl-1,3,5-triazin-2-yl]amino]ethanesulfonic acid

> <PUBCHEM_IUPAC_NAME>
2-[[4-[4-[(4-methyl-6-morpholin-4-yl-1,3,5-triazin-2-yl)amino]anilino]-6-morpholin-4-yl-1,3,5-triazin-2-yl]amino]ethanesulfonic acid

> <PUBCHEM_IUPAC_SYSTEMATIC_NAME>
2-[[4-[[4-[(4-methyl-6-morpholin-4-yl-1,3,5-triazin-2-yl)amino]phenyl]amino]-6-morpholin-4-yl-1,3,5-triazin-2-yl]amino]ethanesulfonic acid

> <PUBCHEM_IUPAC_TRADITIONAL_NAME>
2-[[4-[4-[(4-methyl-6-morpholino-s-triazin-2-yl)amino]anilino]-6-morpholino-s-triazin-2-yl]amino]ethanesulfonic acid

> <PUBCHEM_IUPAC_INCHI>
InChI=1S/C23H31N11O5S/c1-16-25-20(31-22(26-16)33-7-11-38-12-8-33)27-17-2-4-18(5-3-17)28-21-29-19(24-6-15-40(35,36)37)30-23(32-21)34-9-13-39-14-10-34/h2-5H,6-15H2,1H3,(H,35,36,37)(H,25,26,27,31)(H2,24,28,29,30,32)

> <PUBCHEM_IUPAC_INCHIKEY>
YFAKLBGZYVQBMY-UHFFFAOYSA-N

> <PUBCHEM_XLOGP3_AA>
2.1

> <PUBCHEM_EXACT_MASS>
573.22303431

> <PUBCHEM_MOLECULAR_FORMULA>
C23H31N11O5S

> <PUBCHEM_MOLECULAR_WEIGHT>
573.6

> <PUBCHEM_OPENEYE_CAN_SMILES>
CC1=NC(=NC(=N1)N2CCOCC2)NC3=CC=C(C=C3)NC4=NC(=NC(=N4)NCCS(=O)(=O)O)N5CCOCC5

> <PUBCHEM_OPENEYE_ISO_SMILES>
CC1=NC(=NC(=N1)N2CCOCC2)NC3=CC=C(C=C3)NC4=NC(=NC(=N4)NCCS(=O)(=O)O)N5CCOCC5

> <PUBCHEM_CACTVS_TPSA>
201

> <PUBCHEM_MONOISOTOPIC_WEIGHT>
573.22303431

> <PUBCHEM_TOTAL_CHARGE>
0

> <PUBCHEM_HEAVY_ATOM_COUNT>
40

> <PUBCHEM_ATOM_DEF_STEREO_COUNT>
0

> <PUBCHEM_ATOM_UDEF_STEREO_COUNT>
0

> <PUBCHEM_BOND_DEF_STEREO_COUNT>
0

> <PUBCHEM_BOND_UDEF_STEREO_COUNT>
0

> <PUBCHEM_ISOTOPIC_ATOM_COUNT>
0

> <PUBCHEM_COMPONENT_COUNT>
1

> <PUBCHEM_CACTVS_TAUTO_COUNT>
-1

> <PUBCHEM_COORDINATE_TYPE>
1
5
255

> <PUBCHEM_BONDANNOTATIONS>
10  26  8
10  29  8
11  27  8
11  31  8
12  27  8
12  33  8
14  28  8
14  29  8
17  31  8
17  33  8
34  36  8
34  37  8
35  38  8
35  39  8
36  38  8
37  39  8
9  26  8
9  28  8

$$$$
