 
  -OEChem-10192103492D

 47 47  0     1  0  0  0  0  0999 V2000
    7.7331    3.0000    0.0000 P   0  0  0  0  0  0  0  0  0  0  0  0
    8.5991    1.5000    0.0000 P   0  0  0  0  0  0  0  0  0  0  0  0
    4.2690   -1.0000    0.0000 O   0  0  0  0  0  0  0  0  0  0  0  0
    6.0010   -1.0000    0.0000 O   0  0  0  0  0  0  0  0  0  0  0  0
    4.2690   -4.0000    0.0000 O   0  0  0  0  0  0  0  0  0  0  0  0
    2.5369   -3.0000    0.0000 O   0  0  0  0  0  0  0  0  0  0  0  0
    6.0010   -3.0000    0.0000 O   0  0  0  0  0  0  0  0  0  0  0  0
    5.1350    0.5000    0.0000 O   0  0  0  0  0  0  0  0  0  0  0  0
    2.5369   -0.0000    0.0000 O   0  0  0  0  0  0  0  0  0  0  0  0
    7.7331    4.0000    0.0000 O   0  0  0  0  0  0  0  0  0  0  0  0
    8.7331    3.0000    0.0000 O   0  0  0  0  0  0  0  0  0  0  0  0
    9.4651    1.0000    0.0000 O   0  0  0  0  0  0  0  0  0  0  0  0
    8.0991    0.6340    0.0000 O   0  0  0  0  0  0  0  0  0  0  0  0
    6.7331    3.0000    0.0000 O   0  0  0  0  0  0  0  0  0  0  0  0
    9.0991    2.3660    0.0000 O   0  0  0  0  0  0  0  0  0  0  0  0
    4.2690   -3.0000    0.0000 C   0  0  1  0  0  0  0  0  0  0  0  0
    3.4030   -2.5000    0.0000 C   0  0  1  0  0  0  0  0  0  0  0  0
    5.1350   -2.5000    0.0000 C   0  0  2  0  0  0  0  0  0  0  0  0
    3.4030   -1.5000    0.0000 C   0  0  1  0  0  0  0  0  0  0  0  0
    5.1350   -1.5000    0.0000 C   0  0  3  0  0  0  0  0  0  0  0  0
    6.8671    1.5000    0.0000 C   0  0  0  0  0  0  0  0  0  0  0  0
    7.7331    2.0000    0.0000 C   0  0  0  0  0  0  0  0  0  0  0  0
    6.8671    0.5000    0.0000 C   0  0  0  0  0  0  0  0  0  0  0  0
    6.0010   -0.0000    0.0000 C   0  0  3  0  0  0  0  0  0  0  0  0
    2.5369   -1.0000    0.0000 C   0  0  0  0  0  0  0  0  0  0  0  0
    3.7320   -3.3100    0.0000 H   0  0  0  0  0  0  0  0  0  0  0  0
    3.4030   -3.1200    0.0000 H   0  0  0  0  0  0  0  0  0  0  0  0
    5.1350   -3.1200    0.0000 H   0  0  0  0  0  0  0  0  0  0  0  0
    3.4030   -0.8800    0.0000 H   0  0  0  0  0  0  0  0  0  0  0  0
    5.1350   -0.8800    0.0000 H   0  0  0  0  0  0  0  0  0  0  0  0
    7.1962    2.3100    0.0000 H   0  0  0  0  0  0  0  0  0  0  0  0
    6.6550    2.0826    0.0000 H   0  0  0  0  0  0  0  0  0  0  0  0
    6.2565    1.3923    0.0000 H   0  0  0  0  0  0  0  0  0  0  0  0
    7.0791   -0.0826    0.0000 H   0  0  0  0  0  0  0  0  0  0  0  0
    7.4776    0.6077    0.0000 H   0  0  0  0  0  0  0  0  0  0  0  0
    6.0010    0.6200    0.0000 H   0  0  0  0  0  0  0  0  0  0  0  0
    1.9264   -0.8923    0.0000 H   0  0  0  0  0  0  0  0  0  0  0  0
    2.3249   -1.5826    0.0000 H   0  0  0  0  0  0  0  0  0  0  0  0
    3.7320   -4.3100    0.0000 H   0  0  0  0  0  0  0  0  0  0  0  0
    2.0000   -2.6900    0.0000 H   0  0  0  0  0  0  0  0  0  0  0  0
    6.5380   -2.6900    0.0000 H   0  0  0  0  0  0  0  0  0  0  0  0
    5.1350    1.1200    0.0000 H   0  0  0  0  0  0  0  0  0  0  0  0
    2.0000    0.3100    0.0000 H   0  0  0  0  0  0  0  0  0  0  0  0
    7.1962    4.3100    0.0000 H   0  0  0  0  0  0  0  0  0  0  0  0
    9.0431    3.5369    0.0000 H   0  0  0  0  0  0  0  0  0  0  0  0
   10.0021    1.3100    0.0000 H   0  0  0  0  0  0  0  0  0  0  0  0
    8.4091    0.0970    0.0000 H   0  0  0  0  0  0  0  0  0  0  0  0
  1 10  1  0  0  0  0
  1 11  1  0  0  0  0
  1 14  2  0  0  0  0
  1 22  1  0  0  0  0
  2 12  1  0  0  0  0
  2 13  1  0  0  0  0
  2 15  2  0  0  0  0
  2 22  1  0  0  0  0
  3 19  1  0  0  0  0
  3 20  1  0  0  0  0
  4 20  1  0  0  0  0
  4 24  1  0  0  0  0
 16  5  1  1  0  0  0
  5 39  1  0  0  0  0
 17  6  1  6  0  0  0
  6 40  1  0  0  0  0
 18  7  1  6  0  0  0
  7 41  1  0  0  0  0
  8 24  1  0  0  0  0
  8 42  1  0  0  0  0
  9 25  1  0  0  0  0
  9 43  1  0  0  0  0
 10 44  1  0  0  0  0
 11 45  1  0  0  0  0
 12 46  1  0  0  0  0
 13 47  1  0  0  0  0
 16 17  1  0  0  0  0
 16 18  1  0  0  0  0
 16 26  1  0  0  0  0
 17 19  1  0  0  0  0
 17 27  1  0  0  0  0
 18 20  1  0  0  0  0
 18 28  1  0  0  0  0
 19 25  1  1  0  0  0
 19 29  1  0  0  0  0
 20 30  1  0  0  0  0
 21 22  1  0  0  0  0
 21 23  1  0  0  0  0
 21 32  1  0  0  0  0
 21 33  1  0  0  0  0
 22 31  1  0  0  0  0
 23 24  1  0  0  0  0
 23 34  1  0  0  0  0
 23 35  1  0  0  0  0
 24 36  1  0  0  0  0
 25 37  1  0  0  0  0
 25 38  1  0  0  0  0
M  END
> <PUBCHEM_COMPOUND_CID>
10179872

> <PUBCHEM_COMPOUND_CANONICALIZED>
1

> <PUBCHEM_CACTVS_COMPLEXITY>
495

> <PUBCHEM_CACTVS_HBOND_ACCEPTOR>
13

> <PUBCHEM_CACTVS_HBOND_DONOR>
9

> <PUBCHEM_CACTVS_ROTATABLE_BOND>
8

> <PUBCHEM_CACTVS_SUBSKEYS>
AAADceBwPAMAAAAAAAAAAAAAAAAAAAAAAAAkAAAAAAAAAAAAAAAAGggACCAACBS4gAMACAAABhAAQAAAAIAAAAAAAAAAAAAAAAAREAIAAAAiQAAFAAAHAAHAYAwAAAAAAAAAAAAAAAAAAAAAAAAAAAAAAA==

> <PUBCHEM_IUPAC_OPENEYE_NAME>
[4-hydroxy-1-phosphono-4-[(3R,4S,5S,6R)-3,4,5-trihydroxy-6-(hydroxymethyl)tetrahydropyran-2-yl]oxy-butyl]phosphonic acid

> <PUBCHEM_IUPAC_CAS_NAME>
[4-hydroxy-1-phosphono-4-[[(3R,4S,5S,6R)-3,4,5-trihydroxy-6-(hydroxymethyl)-2-oxanyl]oxy]butyl]phosphonic acid

> <PUBCHEM_IUPAC_NAME_MARKUP>
[4-hydroxy-1-phosphono-4-[(3<I>R</I>,4<I>S</I>,5<I>S</I>,6<I>R</I>)-3,4,5-trihydroxy-6-(hydroxymethyl)oxan-2-yl]oxybutyl]phosphonic acid

> <PUBCHEM_IUPAC_NAME>
[4-hydroxy-1-phosphono-4-[(3R,4S,5S,6R)-3,4,5-trihydroxy-6-(hydroxymethyl)oxan-2-yl]oxybutyl]phosphonic acid

> <PUBCHEM_IUPAC_SYSTEMATIC_NAME>
[4-[(3R,4S,5S,6R)-6-(hydroxymethyl)-3,4,5-tris(oxidanyl)oxan-2-yl]oxy-4-oxidanyl-1-phosphono-butyl]phosphonic acid

> <PUBCHEM_IUPAC_TRADITIONAL_NAME>
[4-hydroxy-1-phosphono-4-[(3R,4S,5S,6R)-3,4,5-trihydroxy-6-methylol-tetrahydropyran-2-yl]oxy-butyl]phosphonic acid

> <PUBCHEM_IUPAC_INCHI>
InChI=1S/C10H22O13P2/c11-3-4-7(13)8(14)9(15)10(22-4)23-5(12)1-2-6(24(16,17)18)25(19,20)21/h4-15H,1-3H2,(H2,16,17,18)(H2,19,20,21)/t4-,5?,7-,8+,9-,10?/m1/s1

> <PUBCHEM_IUPAC_INCHIKEY>
FVLCVFNAXVXTRU-UQZTVCFWSA-N

> <PUBCHEM_XLOGP3_AA>
-5.3

> <PUBCHEM_EXACT_MASS>
412.05356475

> <PUBCHEM_MOLECULAR_FORMULA>
C10H22O13P2

> <PUBCHEM_MOLECULAR_WEIGHT>
412.22

> <PUBCHEM_OPENEYE_CAN_SMILES>
C(CC(P(=O)(O)O)P(=O)(O)O)C(O)OC1C(C(C(C(O1)CO)O)O)O

> <PUBCHEM_OPENEYE_ISO_SMILES>
C(CC(P(=O)(O)O)P(=O)(O)O)C(O)OC1[C@@H]([C@H]([C@@H]([C@H](O1)CO)O)O)O

> <PUBCHEM_CACTVS_TPSA>
235

> <PUBCHEM_MONOISOTOPIC_WEIGHT>
412.05356475

> <PUBCHEM_TOTAL_CHARGE>
0

> <PUBCHEM_HEAVY_ATOM_COUNT>
25

> <PUBCHEM_ATOM_DEF_STEREO_COUNT>
4

> <PUBCHEM_ATOM_UDEF_STEREO_COUNT>
2

> <PUBCHEM_BOND_DEF_STEREO_COUNT>
0

> <PUBCHEM_BOND_UDEF_STEREO_COUNT>
0

> <PUBCHEM_ISOTOPIC_ATOM_COUNT>
0

> <PUBCHEM_COMPONENT_COUNT>
1

> <PUBCHEM_CACTVS_TAUTO_COUNT>
-1

> <PUBCHEM_COORDINATE_TYPE>
1
5
255

> <PUBCHEM_BONDANNOTATIONS>
19  25  5
20  4  3
16  5  5
17  6  6
18  7  6
24  8  3

$$$$
