 
  -OEChem-10192104252D

 54 56  0     0  0  0  0  0  0999 V2000
    6.3301   -1.5000    0.0000 S   0  0  0  0  0  0  0  0  0  0  0  0
    7.1962    3.0000    0.0000 S   0  0  0  0  0  0  0  0  0  0  0  0
    5.3301   -1.5000    0.0000 O   0  0  0  0  0  0  0  0  0  0  0  0
    7.3301   -1.5000    0.0000 O   0  0  0  0  0  0  0  0  0  0  0  0
    7.6962    2.1340    0.0000 O   0  0  0  0  0  0  0  0  0  0  0  0
    6.6962    3.8660    0.0000 O   0  0  0  0  0  0  0  0  0  0  0  0
    4.5981    2.5000    0.0000 O   0  0  0  0  0  0  0  0  0  0  0  0
    2.8660   -2.5000    0.0000 O   0  0  0  0  0  0  0  0  0  0  0  0
    4.5981   -5.5000    0.0000 O   0  0  0  0  0  0  0  0  0  0  0  0
    6.3301    2.5000    0.0000 N   0  0  0  0  0  0  0  0  0  0  0  0
    6.3301   -2.5000    0.0000 N   0  0  0  0  0  0  0  0  0  0  0  0
    5.4641   -4.0000    0.0000 N   0  0  0  0  0  0  0  0  0  0  0  0
    3.7320   -4.0000    0.0000 N   0  0  0  0  0  0  0  0  0  0  0  0
    6.3301    1.5000    0.0000 C   0  0  0  0  0  0  0  0  0  0  0  0
    6.3301   -0.5000    0.0000 C   0  0  0  0  0  0  0  0  0  0  0  0
    5.4641    1.0000    0.0000 C   0  0  0  0  0  0  0  0  0  0  0  0
    7.1962    1.0000    0.0000 C   0  0  0  0  0  0  0  0  0  0  0  0
    5.4641   -0.0000    0.0000 C   0  0  0  0  0  0  0  0  0  0  0  0
    7.1962   -0.0000    0.0000 C   0  0  0  0  0  0  0  0  0  0  0  0
    5.4641    3.0000    0.0000 C   0  0  0  0  0  0  0  0  0  0  0  0
    5.4641    4.0000    0.0000 C   0  0  0  0  0  0  0  0  0  0  0  0
    8.0622    3.5000    0.0000 C   0  0  0  0  0  0  0  0  0  0  0  0
    5.4641   -3.0000    0.0000 C   0  0  0  0  0  0  0  0  0  0  0  0
    4.5981    4.5000    0.0000 C   0  0  0  0  0  0  0  0  0  0  0  0
    6.3301    4.5000    0.0000 C   0  0  0  0  0  0  0  0  0  0  0  0
    4.5981   -2.5000    0.0000 C   0  0  0  0  0  0  0  0  0  0  0  0
    4.5981    5.5000    0.0000 C   0  0  0  0  0  0  0  0  0  0  0  0
    6.3301    5.5000    0.0000 C   0  0  0  0  0  0  0  0  0  0  0  0
    5.4641    6.0000    0.0000 C   0  0  0  0  0  0  0  0  0  0  0  0
    8.9282    3.0000    0.0000 C   0  0  0  0  0  0  0  0  0  0  0  0
    3.7320   -3.0000    0.0000 C   0  0  0  0  0  0  0  0  0  0  0  0
    4.5981   -4.5000    0.0000 C   0  0  0  0  0  0  0  0  0  0  0  0
    2.0000   -3.0000    0.0000 C   0  0  0  0  0  0  0  0  0  0  0  0
    3.7320   -6.0000    0.0000 C   0  0  0  0  0  0  0  0  0  0  0  0
    4.9272    1.3100    0.0000 H   0  0  0  0  0  0  0  0  0  0  0  0
    7.7331    1.3100    0.0000 H   0  0  0  0  0  0  0  0  0  0  0  0
    4.9272   -0.3100    0.0000 H   0  0  0  0  0  0  0  0  0  0  0  0
    7.7331   -0.3100    0.0000 H   0  0  0  0  0  0  0  0  0  0  0  0
    6.8671   -2.8100    0.0000 H   0  0  0  0  0  0  0  0  0  0  0  0
    8.0622    4.1200    0.0000 H   0  0  0  0  0  0  0  0  0  0  0  0
    4.0611    4.1900    0.0000 H   0  0  0  0  0  0  0  0  0  0  0  0
    6.8671    4.1900    0.0000 H   0  0  0  0  0  0  0  0  0  0  0  0
    4.5981   -1.8800    0.0000 H   0  0  0  0  0  0  0  0  0  0  0  0
    4.0611    5.8100    0.0000 H   0  0  0  0  0  0  0  0  0  0  0  0
    6.8671    5.8100    0.0000 H   0  0  0  0  0  0  0  0  0  0  0  0
    5.4641    6.6200    0.0000 H   0  0  0  0  0  0  0  0  0  0  0  0
    8.9282    2.3800    0.0000 H   0  0  0  0  0  0  0  0  0  0  0  0
    9.4651    3.3100    0.0000 H   0  0  0  0  0  0  0  0  0  0  0  0
    1.6900   -2.4631    0.0000 H   0  0  0  0  0  0  0  0  0  0  0  0
    1.4631   -3.3100    0.0000 H   0  0  0  0  0  0  0  0  0  0  0  0
    2.3100   -3.5369    0.0000 H   0  0  0  0  0  0  0  0  0  0  0  0
    3.4220   -5.4631    0.0000 H   0  0  0  0  0  0  0  0  0  0  0  0
    3.1951   -6.3100    0.0000 H   0  0  0  0  0  0  0  0  0  0  0  0
    4.0420   -6.5369    0.0000 H   0  0  0  0  0  0  0  0  0  0  0  0
  1  3  2  0  0  0  0
  1  4  2  0  0  0  0
  1 11  1  0  0  0  0
  1 15  1  0  0  0  0
  2  5  2  0  0  0  0
  2  6  2  0  0  0  0
  2 10  1  0  0  0  0
  2 22  1  0  0  0  0
  7 20  2  0  0  0  0
  8 31  1  0  0  0  0
  8 33  1  0  0  0  0
  9 32  1  0  0  0  0
  9 34  1  0  0  0  0
 10 14  1  0  0  0  0
 10 20  1  0  0  0  0
 11 23  1  0  0  0  0
 11 39  1  0  0  0  0
 12 23  1  0  0  0  0
 12 32  2  0  0  0  0
 13 31  2  0  0  0  0
 13 32  1  0  0  0  0
 14 16  2  0  0  0  0
 14 17  1  0  0  0  0
 15 18  2  0  0  0  0
 15 19  1  0  0  0  0
 16 18  1  0  0  0  0
 16 35  1  0  0  0  0
 17 19  2  0  0  0  0
 17 36  1  0  0  0  0
 18 37  1  0  0  0  0
 19 38  1  0  0  0  0
 20 21  1  0  0  0  0
 21 24  2  0  0  0  0
 21 25  1  0  0  0  0
 22 30  2  0  0  0  0
 22 40  1  0  0  0  0
 23 26  2  0  0  0  0
 24 27  1  0  0  0  0
 24 41  1  0  0  0  0
 25 28  2  0  0  0  0
 25 42  1  0  0  0  0
 26 31  1  0  0  0  0
 26 43  1  0  0  0  0
 27 29  2  0  0  0  0
 27 44  1  0  0  0  0
 28 29  1  0  0  0  0
 28 45  1  0  0  0  0
 29 46  1  0  0  0  0
 30 47  1  0  0  0  0
 30 48  1  0  0  0  0
 33 49  1  0  0  0  0
 33 50  1  0  0  0  0
 33 51  1  0  0  0  0
 34 52  1  0  0  0  0
 34 53  1  0  0  0  0
 34 54  1  0  0  0  0
M  END
> <PUBCHEM_COMPOUND_CID>
138906811

> <PUBCHEM_COMPOUND_CANONICALIZED>
1

> <PUBCHEM_CACTVS_COMPLEXITY>
902

> <PUBCHEM_CACTVS_HBOND_ACCEPTOR>
10

> <PUBCHEM_CACTVS_HBOND_DONOR>
1

> <PUBCHEM_CACTVS_ROTATABLE_BOND>
9

> <PUBCHEM_CACTVS_SUBSKEYS>
AAADceB7uABgAAAAAAAAAAAAAAAAAAAAAAA8YIAAAAAAAAAB0AAAHgQQQAAADAiF2gKz9ZZIFAKoAidydHDCiDklIqAJmDk2bNiMLDLE/dmEJShqlArI6acYiACOAAQAAAAAAAAACAAAAAAAAAAAAAAAAA==

> <PUBCHEM_IUPAC_OPENEYE_NAME>
N-[4-[(2,6-dimethoxypyrimidin-4-yl)sulfamoyl]phenyl]-N-vinylsulfonyl-benzamide

> <PUBCHEM_IUPAC_CAS_NAME>
N-[4-[(2,6-dimethoxy-4-pyrimidinyl)sulfamoyl]phenyl]-N-ethenylsulfonylbenzamide

> <PUBCHEM_IUPAC_NAME_MARKUP>
<I>N</I>-[4-[(2,6-dimethoxypyrimidin-4-yl)sulfamoyl]phenyl]-<I>N</I>-ethenylsulfonylbenzamide

> <PUBCHEM_IUPAC_NAME>
N-[4-[(2,6-dimethoxypyrimidin-4-yl)sulfamoyl]phenyl]-N-ethenylsulfonylbenzamide

> <PUBCHEM_IUPAC_SYSTEMATIC_NAME>
N-[4-[(2,6-dimethoxypyrimidin-4-yl)sulfamoyl]phenyl]-N-ethenylsulfonyl-benzamide

> <PUBCHEM_IUPAC_TRADITIONAL_NAME>
N-[4-[(2,6-dimethoxypyrimidin-4-yl)sulfamoyl]phenyl]-N-vinylsulfonyl-benzamide

> <PUBCHEM_IUPAC_INCHI>
InChI=1S/C21H20N4O7S2/c1-4-33(27,28)25(20(26)15-8-6-5-7-9-15)16-10-12-17(13-11-16)34(29,30)24-18-14-19(31-2)23-21(22-18)32-3/h4-14H,1H2,2-3H3,(H,22,23,24)

> <PUBCHEM_IUPAC_INCHIKEY>
LAPQIZBMCBHJBO-UHFFFAOYSA-N

> <PUBCHEM_XLOGP3_AA>
2.7

> <PUBCHEM_EXACT_MASS>
504.07734134

> <PUBCHEM_MOLECULAR_FORMULA>
C21H20N4O7S2

> <PUBCHEM_MOLECULAR_WEIGHT>
504.5

> <PUBCHEM_OPENEYE_CAN_SMILES>
COC1=NC(=NC(=C1)NS(=O)(=O)C2=CC=C(C=C2)N(C(=O)C3=CC=CC=C3)S(=O)(=O)C=C)OC

> <PUBCHEM_OPENEYE_ISO_SMILES>
COC1=NC(=NC(=C1)NS(=O)(=O)C2=CC=C(C=C2)N(C(=O)C3=CC=CC=C3)S(=O)(=O)C=C)OC

> <PUBCHEM_CACTVS_TPSA>
162

> <PUBCHEM_MONOISOTOPIC_WEIGHT>
504.07734134

> <PUBCHEM_TOTAL_CHARGE>
0

> <PUBCHEM_HEAVY_ATOM_COUNT>
34

> <PUBCHEM_ATOM_DEF_STEREO_COUNT>
0

> <PUBCHEM_ATOM_UDEF_STEREO_COUNT>
0

> <PUBCHEM_BOND_DEF_STEREO_COUNT>
0

> <PUBCHEM_BOND_UDEF_STEREO_COUNT>
0

> <PUBCHEM_ISOTOPIC_ATOM_COUNT>
0

> <PUBCHEM_COMPONENT_COUNT>
1

> <PUBCHEM_CACTVS_TAUTO_COUNT>
-1

> <PUBCHEM_COORDINATE_TYPE>
1
5
255

> <PUBCHEM_BONDANNOTATIONS>
12  23  8
12  32  8
13  31  8
13  32  8
14  16  8
14  17  8
15  18  8
15  19  8
16  18  8
17  19  8
21  24  8
21  25  8
23  26  8
24  27  8
25  28  8
26  31  8
27  29  8
28  29  8

$$$$
