 
  -OEChem-10192103262D

 54 56  0     1  0  0  0  0  0999 V2000
    6.0010    1.1550    0.0000 O   0  0  0  0  0  0  0  0  0  0  0  0
    9.4893    0.2639    0.0000 O   0  0  0  0  0  0  0  0  0  0  0  0
    6.8671   -0.3450    0.0000 O   0  0  0  0  0  0  0  0  0  0  0  0
    8.9900    3.4102    0.0000 O   0  0  0  0  0  0  0  0  0  0  0  0
    5.1350    2.6550    0.0000 O   0  0  0  0  0  0  0  0  0  0  0  0
    5.1350   -0.3450    0.0000 O   0  0  0  0  0  0  0  0  0  0  0  0
    6.8671   -2.3450    0.0000 O   0  0  0  0  0  0  0  0  0  0  0  0
    5.1350   -3.3450    0.0000 O   0  0  0  0  0  0  0  0  0  0  0  0
    3.4030   -2.3450    0.0000 O   0  0  0  0  0  0  0  0  0  0  0  0
    2.5369   -0.8450    0.0000 O   0  0  0  0  0  0  0  0  0  0  0  0
    7.7331    1.1550    0.0000 C   0  0  3  0  0  0  0  0  0  0  0  0
    7.7331    2.1550    0.0000 C   0  0  3  0  0  0  0  0  0  0  0  0
    8.6793    0.8503    0.0000 C   0  0  2  0  0  0  0  0  0  0  0  0
    8.6793    2.4597    0.0000 C   0  0  1  0  0  0  0  0  0  0  0  0
    9.2629    1.6550    0.0000 C   0  0  0  0  0  0  0  0  0  0  0  0
    6.8671    0.6550    0.0000 C   0  0  1  0  0  0  0  0  0  0  0  0
    6.8671    2.6550    0.0000 C   0  0  0  0  0  0  0  0  0  0  0  0
    6.0010    2.1550    0.0000 C   0  0  1  0  0  0  0  0  0  0  0  0
    8.3719   -0.1013    0.0000 C   0  0  0  0  0  0  0  0  0  0  0  0
    6.0010   -0.8450    0.0000 C   0  0  2  0  0  0  0  0  0  0  0  0
    6.0010   -1.8450    0.0000 C   0  0  1  0  0  0  0  0  0  0  0  0
    5.1350   -2.3450    0.0000 C   0  0  2  0  0  0  0  0  0  0  0  0
    4.2690   -1.8450    0.0000 C   0  0  1  0  0  0  0  0  0  0  0  0
    4.2690   -0.8450    0.0000 C   0  0  1  0  0  0  0  0  0  0  0  0
    5.1350    3.6550    0.0000 C   0  0  0  0  0  0  0  0  0  0  0  0
    3.4030   -0.3450    0.0000 C   0  0  0  0  0  0  0  0  0  0  0  0
    7.7987    0.5385    0.0000 H   0  0  0  0  0  0  0  0  0  0  0  0
    7.7987    2.7715    0.0000 H   0  0  0  0  0  0  0  0  0  0  0  0
    8.2418    2.8991    0.0000 H   0  0  0  0  0  0  0  0  0  0  0  0
    9.7238    1.2403    0.0000 H   0  0  0  0  0  0  0  0  0  0  0  0
    9.7238    2.0697    0.0000 H   0  0  0  0  0  0  0  0  0  0  0  0
    7.4040    0.3450    0.0000 H   0  0  0  0  0  0  0  0  0  0  0  0
    7.2656    3.1300    0.0000 H   0  0  0  0  0  0  0  0  0  0  0  0
    6.4685    3.1300    0.0000 H   0  0  0  0  0  0  0  0  0  0  0  0
    6.0010    2.7750    0.0000 H   0  0  0  0  0  0  0  0  0  0  0  0
    7.7820    0.0892    0.0000 H   0  0  0  0  0  0  0  0  0  0  0  0
    8.1814   -0.6913    0.0000 H   0  0  0  0  0  0  0  0  0  0  0  0
    8.9619   -0.2919    0.0000 H   0  0  0  0  0  0  0  0  0  0  0  0
   10.0553    0.5170    0.0000 H   0  0  0  0  0  0  0  0  0  0  0  0
    9.5966    3.5381    0.0000 H   0  0  0  0  0  0  0  0  0  0  0  0
    6.0010   -0.2250    0.0000 H   0  0  0  0  0  0  0  0  0  0  0  0
    6.0010   -2.4650    0.0000 H   0  0  0  0  0  0  0  0  0  0  0  0
    4.5981   -2.6550    0.0000 H   0  0  0  0  0  0  0  0  0  0  0  0
    4.2690   -2.4650    0.0000 H   0  0  0  0  0  0  0  0  0  0  0  0
    4.2690   -0.2250    0.0000 H   0  0  0  0  0  0  0  0  0  0  0  0
    3.8015    0.1299    0.0000 H   0  0  0  0  0  0  0  0  0  0  0  0
    3.0044    0.1299    0.0000 H   0  0  0  0  0  0  0  0  0  0  0  0
    5.7550    3.6550    0.0000 H   0  0  0  0  0  0  0  0  0  0  0  0
    5.1350    4.2750    0.0000 H   0  0  0  0  0  0  0  0  0  0  0  0
    4.5150    3.6550    0.0000 H   0  0  0  0  0  0  0  0  0  0  0  0
    6.8671   -2.9650    0.0000 H   0  0  0  0  0  0  0  0  0  0  0  0
    4.5981   -3.6550    0.0000 H   0  0  0  0  0  0  0  0  0  0  0  0
    3.4030   -2.9650    0.0000 H   0  0  0  0  0  0  0  0  0  0  0  0
    2.0000   -0.5350    0.0000 H   0  0  0  0  0  0  0  0  0  0  0  0
  1 16  1  0  0  0  0
  1 18  1  0  0  0  0
 13  2  1  6  0  0  0
  2 39  1  0  0  0  0
  3 16  1  0  0  0  0
 20  3  1  1  0  0  0
 14  4  1  6  0  0  0
  4 40  1  0  0  0  0
 18  5  1  1  0  0  0
  5 25  1  0  0  0  0
  6 20  1  0  0  0  0
  6 24  1  0  0  0  0
 21  7  1  6  0  0  0
  7 51  1  0  0  0  0
 22  8  1  1  0  0  0
  8 52  1  0  0  0  0
 23  9  1  6  0  0  0
  9 53  1  0  0  0  0
 10 26  1  0  0  0  0
 10 54  1  0  0  0  0
 11 12  1  0  0  0  0
 11 13  1  0  0  0  0
 11 16  1  0  0  0  0
 11 27  1  0  0  0  0
 12 14  1  0  0  0  0
 12 17  1  0  0  0  0
 12 28  1  0  0  0  0
 13 15  1  0  0  0  0
 13 19  1  0  0  0  0
 14 15  1  0  0  0  0
 14 29  1  0  0  0  0
 15 30  1  0  0  0  0
 15 31  1  0  0  0  0
 16 32  1  0  0  0  0
 17 18  1  0  0  0  0
 17 33  1  0  0  0  0
 17 34  1  0  0  0  0
 18 35  1  0  0  0  0
 19 36  1  0  0  0  0
 19 37  1  0  0  0  0
 19 38  1  0  0  0  0
 20 21  1  0  0  0  0
 20 41  1  0  0  0  0
 21 22  1  0  0  0  0
 21 42  1  0  0  0  0
 22 23  1  0  0  0  0
 22 43  1  0  0  0  0
 23 24  1  0  0  0  0
 23 44  1  0  0  0  0
 24 26  1  1  0  0  0
 24 45  1  0  0  0  0
 25 48  1  0  0  0  0
 25 49  1  0  0  0  0
 25 50  1  0  0  0  0
 26 46  1  0  0  0  0
 26 47  1  0  0  0  0
M  END
> <PUBCHEM_COMPOUND_CID>
54578037

> <PUBCHEM_COMPOUND_CANONICALIZED>
1

> <PUBCHEM_CACTVS_COMPLEXITY>
492

> <PUBCHEM_CACTVS_HBOND_ACCEPTOR>
10

> <PUBCHEM_CACTVS_HBOND_DONOR>
6

> <PUBCHEM_CACTVS_ROTATABLE_BOND>
4

> <PUBCHEM_CACTVS_SUBSKEYS>
AAADceB4PAAAAAAAAAAAAAAAAAAAAYAAAAAkSAAAAAAAAEgAAAAAGgAACAAADVSwgAMCCAAABgAAAAAAAAAAAAAAAAAAAAAAAAAREAIAAAAiQAAFAAAHAAHA4PwOgAAAAAAAAAAAAAAAAAAAAYQADAAAAA==

> <PUBCHEM_IUPAC_OPENEYE_NAME>
(2S,3R,4S,5S,6R)-2-[[(1S,3R,5R,7S)-5,7-dihydroxy-3-methoxy-7-methyl-3,4,4a,5,6,7a-hexahydro-1H-cyclopenta[c]pyran-1-yl]oxy]-6-(hydroxymethyl)tetrahydropyran-3,4,5-triol

> <PUBCHEM_IUPAC_CAS_NAME>
(2S,3R,4S,5S,6R)-2-[[(1S,3R,5R,7S)-5,7-dihydroxy-3-methoxy-7-methyl-3,4,4a,5,6,7a-hexahydro-1H-cyclopenta[c]pyran-1-yl]oxy]-6-(hydroxymethyl)oxane-3,4,5-triol

> <PUBCHEM_IUPAC_NAME_MARKUP>
(2<I>S</I>,3<I>R</I>,4<I>S</I>,5<I>S</I>,6<I>R</I>)-2-[[(1<I>S</I>,3<I>R</I>,5<I>R</I>,7<I>S</I>)-5,7-dihydroxy-3-methoxy-7-methyl-3,4,4<I>a</I>,5,6,7<I>a</I>-hexahydro-1<I>H</I>-cyclopenta[c]pyran-1-yl]oxy]-6-(hydroxymethyl)oxane-3,4,5-triol

> <PUBCHEM_IUPAC_NAME>
(2S,3R,4S,5S,6R)-2-[[(1S,3R,5R,7S)-5,7-dihydroxy-3-methoxy-7-methyl-3,4,4a,5,6,7a-hexahydro-1H-cyclopenta[c]pyran-1-yl]oxy]-6-(hydroxymethyl)oxane-3,4,5-triol

> <PUBCHEM_IUPAC_SYSTEMATIC_NAME>
(2R,3S,4S,5R,6S)-2-(hydroxymethyl)-6-[[(1S,3R,5R,7S)-3-methoxy-7-methyl-5,7-bis(oxidanyl)-3,4,4a,5,6,7a-hexahydro-1H-cyclopenta[c]pyran-1-yl]oxy]oxane-3,4,5-triol

> <PUBCHEM_IUPAC_TRADITIONAL_NAME>
(2S,3R,4S,5S,6R)-2-[[(1S,3R,5R,7S)-5,7-dihydroxy-3-methoxy-7-methyl-3,4,4a,5,6,7a-hexahydro-1H-cyclopenta[c]pyran-1-yl]oxy]-6-methylol-tetrahydropyran-3,4,5-triol

> <PUBCHEM_IUPAC_INCHI>
InChI=1S/C16H28O10/c1-16(22)4-7(18)6-3-9(23-2)25-14(10(6)16)26-15-13(21)12(20)11(19)8(5-17)24-15/h6-15,17-22H,3-5H2,1-2H3/t6?,7-,8-,9-,10?,11-,12+,13-,14+,15+,16+/m1/s1

> <PUBCHEM_IUPAC_INCHIKEY>
NAGWDVVUKKNKJO-OMOTWFQQSA-N

> <PUBCHEM_XLOGP3_AA>
-2.3

> <PUBCHEM_EXACT_MASS>
380.16824709

> <PUBCHEM_MOLECULAR_FORMULA>
C16H28O10

> <PUBCHEM_MOLECULAR_WEIGHT>
380.39

> <PUBCHEM_OPENEYE_CAN_SMILES>
CC1(CC(C2C1C(OC(C2)OC)OC3C(C(C(C(O3)CO)O)O)O)O)O

> <PUBCHEM_OPENEYE_ISO_SMILES>
C[C@@]1(C[C@H](C2C1[C@@H](O[C@H](C2)OC)O[C@H]3[C@@H]([C@H]([C@@H]([C@H](O3)CO)O)O)O)O)O

> <PUBCHEM_CACTVS_TPSA>
158

> <PUBCHEM_MONOISOTOPIC_WEIGHT>
380.16824709

> <PUBCHEM_TOTAL_CHARGE>
0

> <PUBCHEM_HEAVY_ATOM_COUNT>
26

> <PUBCHEM_ATOM_DEF_STEREO_COUNT>
9

> <PUBCHEM_ATOM_UDEF_STEREO_COUNT>
2

> <PUBCHEM_BOND_DEF_STEREO_COUNT>
0

> <PUBCHEM_BOND_UDEF_STEREO_COUNT>
0

> <PUBCHEM_ISOTOPIC_ATOM_COUNT>
0

> <PUBCHEM_COMPONENT_COUNT>
1

> <PUBCHEM_CACTVS_TAUTO_COUNT>
-1

> <PUBCHEM_COORDINATE_TYPE>
1
5
255

> <PUBCHEM_BONDANNOTATIONS>
11  16  3
12  17  3
13  2  6
24  26  5
20  3  5
14  4  6
18  5  5
21  7  6
22  8  5
23  9  6

$$$$
