 
  -OEChem-10192104352D

 20 19  0     0  0  0  0  0  0999 V2000
    7.7331    0.3100    0.0000 S   0  0  0  0  0  0  0  0  0  0  0  0
    6.8671    0.8100    0.0000 P   0  3  0  0  0  0  0  0  0  0  0  0
    6.0010    0.3100    0.0000 O   0  0  0  0  0  0  0  0  0  0  0  0
    2.5369    0.3100    0.0000 O   0  0  0  0  0  0  0  0  0  0  0  0
    3.4030   -1.1900    0.0000 O   0  0  0  0  0  0  0  0  0  0  0  0
    6.8671    1.8100    0.0000 O   0  0  0  0  0  0  0  0  0  0  0  0
    4.2690    0.3100    0.0000 C   0  0  0  0  0  0  0  0  0  0  0  0
    5.1350    0.8100    0.0000 C   0  0  0  0  0  0  0  0  0  0  0  0
    3.4030    0.8100    0.0000 C   0  0  0  0  0  0  0  0  0  0  0  0
    4.2690   -0.6900    0.0000 C   0  0  0  0  0  0  0  0  0  0  0  0
    4.2690    0.9300    0.0000 H   0  0  0  0  0  0  0  0  0  0  0  0
    5.5335    1.2850    0.0000 H   0  0  0  0  0  0  0  0  0  0  0  0
    4.7365    1.2850    0.0000 H   0  0  0  0  0  0  0  0  0  0  0  0
    3.8015    1.2850    0.0000 H   0  0  0  0  0  0  0  0  0  0  0  0
    3.0044    1.2850    0.0000 H   0  0  0  0  0  0  0  0  0  0  0  0
    4.4810   -1.2726    0.0000 H   0  0  0  0  0  0  0  0  0  0  0  0
    4.8796   -0.5823    0.0000 H   0  0  0  0  0  0  0  0  0  0  0  0
    2.0000    0.6200    0.0000 H   0  0  0  0  0  0  0  0  0  0  0  0
    3.4030   -1.8100    0.0000 H   0  0  0  0  0  0  0  0  0  0  0  0
    8.2700    0.6200    0.0000 H   0  0  0  0  0  0  0  0  0  0  0  0
  1  2  1  0  0  0  0
  1 20  1  0  0  0  0
  2  3  1  0  0  0  0
  2  6  2  0  0  0  0
  3  8  1  0  0  0  0
  4  9  1  0  0  0  0
  4 18  1  0  0  0  0
  5 10  1  0  0  0  0
  5 19  1  0  0  0  0
  7  8  1  0  0  0  0
  7  9  1  0  0  0  0
  7 10  1  0  0  0  0
  7 11  1  0  0  0  0
  8 12  1  0  0  0  0
  8 13  1  0  0  0  0
  9 14  1  0  0  0  0
  9 15  1  0  0  0  0
 10 16  1  0  0  0  0
 10 17  1  0  0  0  0
M  CHG  1   2   1
M  END
> <PUBCHEM_COMPOUND_CID>
88920744

> <PUBCHEM_COMPOUND_CANONICALIZED>
1

> <PUBCHEM_CACTVS_COMPLEXITY>
105

> <PUBCHEM_CACTVS_HBOND_ACCEPTOR>
5

> <PUBCHEM_CACTVS_HBOND_DONOR>
3

> <PUBCHEM_CACTVS_ROTATABLE_BOND>
5

> <PUBCHEM_CACTVS_SUBSKEYS>
AAADccBgOAJAAAAAAAAAAAAAAAAAAAAAAAAAAAAAAAAAAAAAAAAAGgAACCAADQCggAIAAAAAAxAAQAAAAIAAAAAAAAAAAAAAAAAAEAAAAAAAQAABAAAAAAAAAAAAAAAAAAAAAAAAAAAAAAAAAAAAAAAAAA==

> <PUBCHEM_IUPAC_OPENEYE_NAME>
[3-hydroxy-2-(hydroxymethyl)propoxy]-oxo-sulfanyl-phosphonium

> <PUBCHEM_IUPAC_CAS_NAME>
[3-hydroxy-2-(hydroxymethyl)propoxy]-mercapto-oxophosphonium

> <PUBCHEM_IUPAC_NAME_MARKUP>
[3-hydroxy-2-(hydroxymethyl)propoxy]-oxo-sulfanylphosphanium

> <PUBCHEM_IUPAC_NAME>
[3-hydroxy-2-(hydroxymethyl)propoxy]-oxo-sulfanylphosphanium

> <PUBCHEM_IUPAC_SYSTEMATIC_NAME>
[2-(hydroxymethyl)-3-oxidanyl-propoxy]-oxidanylidene-sulfanyl-phosphanium

> <PUBCHEM_IUPAC_TRADITIONAL_NAME>
(3-hydroxy-2-methylol-propoxy)-keto-mercapto-phosphonium

> <PUBCHEM_IUPAC_INCHI>
InChI=1S/C4H9O4PS/c5-1-4(2-6)3-8-9(7)10/h4-6H,1-3H2/p+1

> <PUBCHEM_IUPAC_INCHIKEY>
GNNPMEKWUVDBIA-UHFFFAOYSA-O

> <PUBCHEM_XLOGP3_AA>
-1

> <PUBCHEM_EXACT_MASS>
185.00374197

> <PUBCHEM_MOLECULAR_FORMULA>
C4H10O4PS+

> <PUBCHEM_MOLECULAR_WEIGHT>
185.16

> <PUBCHEM_OPENEYE_CAN_SMILES>
C(C(CO)CO[P+](=O)S)O

> <PUBCHEM_OPENEYE_ISO_SMILES>
C(C(CO)CO[P+](=O)S)O

> <PUBCHEM_CACTVS_TPSA>
67.8

> <PUBCHEM_MONOISOTOPIC_WEIGHT>
185.00374197

> <PUBCHEM_TOTAL_CHARGE>
1

> <PUBCHEM_HEAVY_ATOM_COUNT>
10

> <PUBCHEM_ATOM_DEF_STEREO_COUNT>
0

> <PUBCHEM_ATOM_UDEF_STEREO_COUNT>
0

> <PUBCHEM_BOND_DEF_STEREO_COUNT>
0

> <PUBCHEM_BOND_UDEF_STEREO_COUNT>
0

> <PUBCHEM_ISOTOPIC_ATOM_COUNT>
0

> <PUBCHEM_COMPONENT_COUNT>
1

> <PUBCHEM_CACTVS_TAUTO_COUNT>
-1

> <PUBCHEM_COORDINATE_TYPE>
1
5
255

$$$$
