 
  -OEChem-10192103472D

 42 41  0     1  0  0  0  0  0999 V2000
    5.1350   -3.1270    0.0000 S   0  0  0  0  0  0  0  0  0  0  0  0
    4.2690   -3.6270    0.0000 O   0  0  0  0  0  0  0  0  0  0  0  0
    4.6350   -2.2610    0.0000 O   0  0  0  0  0  0  0  0  0  0  0  0
    6.8671   -0.1270    0.0000 O   0  0  0  0  0  0  0  0  0  0  0  0
    6.0010    0.3730    0.0000 O   0  0  0  0  0  0  0  0  0  0  0  0
    2.5369    3.3730    0.0000 O   0  0  0  0  0  0  0  0  0  0  0  0
    4.2690    3.3730    0.0000 O   0  0  0  0  0  0  0  0  0  0  0  0
   10.3312   -1.1270    0.0000 O   0  0  0  0  0  0  0  0  0  0  0  0
    9.4651   -2.6270    0.0000 O   0  0  0  0  0  0  0  0  0  0  0  0
    5.1350   -1.1270    0.0000 N   0  0  0  0  0  0  0  0  0  0  0  0
    7.7331   -1.6270    0.0000 N   0  0  0  0  0  0  0  0  0  0  0  0
    2.5369    1.3730    0.0000 N   0  0  0  0  0  0  0  0  0  0  0  0
    6.0010   -1.6270    0.0000 C   0  0  1  0  0  0  0  0  0  0  0  0
    6.0010   -2.6270    0.0000 C   0  0  0  0  0  0  0  0  0  0  0  0
    4.2690    0.3730    0.0000 C   0  0  0  0  0  0  0  0  0  0  0  0
    4.2690    1.3730    0.0000 C   0  0  0  0  0  0  0  0  0  0  0  0
    6.8671   -1.1270    0.0000 C   0  0  0  0  0  0  0  0  0  0  0  0
    5.1350   -0.1270    0.0000 C   0  0  0  0  0  0  0  0  0  0  0  0
    3.4030    1.8730    0.0000 C   0  0  3  0  0  0  0  0  0  0  0  0
    5.6350   -3.9930    0.0000 C   0  0  0  0  0  0  0  0  0  0  0  0
    8.5991   -1.1270    0.0000 C   0  0  0  0  0  0  0  0  0  0  0  0
    3.4030    2.8730    0.0000 C   0  0  0  0  0  0  0  0  0  0  0  0
    9.4651   -1.6270    0.0000 C   0  0  0  0  0  0  0  0  0  0  0  0
    5.4641   -1.9370    0.0000 H   0  0  0  0  0  0  0  0  0  0  0  0
    6.2131   -3.2096    0.0000 H   0  0  0  0  0  0  0  0  0  0  0  0
    6.6116   -2.5193    0.0000 H   0  0  0  0  0  0  0  0  0  0  0  0
    4.5981   -1.4370    0.0000 H   0  0  0  0  0  0  0  0  0  0  0  0
    3.6584    0.4807    0.0000 H   0  0  0  0  0  0  0  0  0  0  0  0
    4.0569   -0.2096    0.0000 H   0  0  0  0  0  0  0  0  0  0  0  0
    4.8796    1.2654    0.0000 H   0  0  0  0  0  0  0  0  0  0  0  0
    4.4810    1.9556    0.0000 H   0  0  0  0  0  0  0  0  0  0  0  0
    3.4030    1.2530    0.0000 H   0  0  0  0  0  0  0  0  0  0  0  0
    5.0981   -4.3030    0.0000 H   0  0  0  0  0  0  0  0  0  0  0  0
    5.9450   -4.5300    0.0000 H   0  0  0  0  0  0  0  0  0  0  0  0
    6.1720   -3.6830    0.0000 H   0  0  0  0  0  0  0  0  0  0  0  0
    7.7331   -2.2470    0.0000 H   0  0  0  0  0  0  0  0  0  0  0  0
    8.9976   -0.6520    0.0000 H   0  0  0  0  0  0  0  0  0  0  0  0
    8.2006   -0.6520    0.0000 H   0  0  0  0  0  0  0  0  0  0  0  0
    2.0000    1.6830    0.0000 H   0  0  0  0  0  0  0  0  0  0  0  0
    2.5369    0.7530    0.0000 H   0  0  0  0  0  0  0  0  0  0  0  0
    2.5369    3.9930    0.0000 H   0  0  0  0  0  0  0  0  0  0  0  0
   10.8681   -1.4370    0.0000 H   0  0  0  0  0  0  0  0  0  0  0  0
  1  2  2  0  0  0  0
  1  3  2  0  0  0  0
  1 14  1  0  0  0  0
  1 20  1  0  0  0  0
  4 17  2  0  0  0  0
  5 18  2  0  0  0  0
  6 22  1  0  0  0  0
  6 41  1  0  0  0  0
  7 22  2  0  0  0  0
  8 23  1  0  0  0  0
  8 42  1  0  0  0  0
  9 23  2  0  0  0  0
 13 10  1  6  0  0  0
 10 18  1  0  0  0  0
 10 27  1  0  0  0  0
 11 17  1  0  0  0  0
 11 21  1  0  0  0  0
 11 36  1  0  0  0  0
 12 19  1  0  0  0  0
 12 39  1  0  0  0  0
 12 40  1  0  0  0  0
 13 14  1  0  0  0  0
 13 17  1  0  0  0  0
 13 24  1  0  0  0  0
 14 25  1  0  0  0  0
 14 26  1  0  0  0  0
 15 16  1  0  0  0  0
 15 18  1  0  0  0  0
 15 28  1  0  0  0  0
 15 29  1  0  0  0  0
 16 19  1  0  0  0  0
 16 30  1  0  0  0  0
 16 31  1  0  0  0  0
 19 22  1  0  0  0  0
 19 32  1  0  0  0  0
 20 33  1  0  0  0  0
 20 34  1  0  0  0  0
 20 35  1  0  0  0  0
 21 23  1  0  0  0  0
 21 37  1  0  0  0  0
 21 38  1  0  0  0  0
M  END
> <PUBCHEM_COMPOUND_CID>
134442365

> <PUBCHEM_COMPOUND_CANONICALIZED>
1

> <PUBCHEM_CACTVS_COMPLEXITY>
568

> <PUBCHEM_CACTVS_HBOND_ACCEPTOR>
9

> <PUBCHEM_CACTVS_HBOND_DONOR>
5

> <PUBCHEM_CACTVS_ROTATABLE_BOND>
10

> <PUBCHEM_CACTVS_SUBSKEYS>
AAADceBzPABAAAAAAAAAAAAAAAAAAAAAAAAAAAAAAAAAAAAAAAAAHgQQCAAACCjFwASCCALAAgoIAAGQGHBAAAAAABAAAIGIAAACQBIggCAUQAAEFgCQAACcFwIAAAAAAAAAAAAAAAAAAAAAAAAAAAAAAA==

> <PUBCHEM_IUPAC_OPENEYE_NAME>
2-amino-5-[[(1R)-2-(carboxymethylamino)-1-(methylsulfonylmethyl)-2-oxo-ethyl]amino]-5-oxo-pentanoic acid

> <PUBCHEM_IUPAC_CAS_NAME>
2-amino-5-[[(2R)-1-(carboxymethylamino)-3-methylsulfonyl-1-oxopropan-2-yl]amino]-5-oxopentanoic acid

> <PUBCHEM_IUPAC_NAME_MARKUP>
2-amino-5-[[(2<I>R</I>)-1-(carboxymethylamino)-3-methylsulfonyl-1-oxopropan-2-yl]amino]-5-oxopentanoic acid

> <PUBCHEM_IUPAC_NAME>
2-amino-5-[[(2R)-1-(carboxymethylamino)-3-methylsulfonyl-1-oxopropan-2-yl]amino]-5-oxopentanoic acid

> <PUBCHEM_IUPAC_SYSTEMATIC_NAME>
2-azanyl-5-[[(2R)-1-(2-hydroxy-2-oxoethylamino)-3-methylsulfonyl-1-oxidanylidene-propan-2-yl]amino]-5-oxidanylidene-pentanoic acid

> <PUBCHEM_IUPAC_TRADITIONAL_NAME>
2-amino-5-[[(1R)-2-(carboxymethylamino)-2-keto-1-(mesylmethyl)ethyl]amino]-5-keto-valeric acid

> <PUBCHEM_IUPAC_INCHI>
InChI=1S/C11H19N3O8S/c1-23(21,22)5-7(10(18)13-4-9(16)17)14-8(15)3-2-6(12)11(19)20/h6-7H,2-5,12H2,1H3,(H,13,18)(H,14,15)(H,16,17)(H,19,20)/t6?,7-/m0/s1

> <PUBCHEM_IUPAC_INCHIKEY>
FPTLVELQEBRMSO-MLWJPKLSSA-N

> <PUBCHEM_XLOGP3_AA>
-5.4

> <PUBCHEM_EXACT_MASS>
353.08928575

> <PUBCHEM_MOLECULAR_FORMULA>
C11H19N3O8S

> <PUBCHEM_MOLECULAR_WEIGHT>
353.35

> <PUBCHEM_OPENEYE_CAN_SMILES>
CS(=O)(=O)CC(C(=O)NCC(=O)O)NC(=O)CCC(C(=O)O)N

> <PUBCHEM_OPENEYE_ISO_SMILES>
CS(=O)(=O)C[C@@H](C(=O)NCC(=O)O)NC(=O)CCC(C(=O)O)N

> <PUBCHEM_CACTVS_TPSA>
201

> <PUBCHEM_MONOISOTOPIC_WEIGHT>
353.08928575

> <PUBCHEM_TOTAL_CHARGE>
0

> <PUBCHEM_HEAVY_ATOM_COUNT>
23

> <PUBCHEM_ATOM_DEF_STEREO_COUNT>
1

> <PUBCHEM_ATOM_UDEF_STEREO_COUNT>
1

> <PUBCHEM_BOND_DEF_STEREO_COUNT>
0

> <PUBCHEM_BOND_UDEF_STEREO_COUNT>
0

> <PUBCHEM_ISOTOPIC_ATOM_COUNT>
0

> <PUBCHEM_COMPONENT_COUNT>
1

> <PUBCHEM_CACTVS_TAUTO_COUNT>
-1

> <PUBCHEM_COORDINATE_TYPE>
1
5
255

> <PUBCHEM_BONDANNOTATIONS>
13  10  6
19  12  3

$$$$
