 
  -OEChem-10192103332D

 61 62  0     1  0  0  0  0  0999 V2000
    8.5991   -0.5000    0.0000 O   0  0  0  0  0  0  0  0  0  0  0  0
    6.8671    0.5000    0.0000 O   0  0  0  0  0  0  0  0  0  0  0  0
    5.1350    0.5000    0.0000 O   0  0  0  0  0  0  0  0  0  0  0  0
   10.3312   -0.5000    0.0000 O   0  0  0  0  0  0  0  0  0  0  0  0
    6.8671   -2.5000    0.0000 O   0  0  0  0  0  0  0  0  0  0  0  0
    8.5991   -3.5000    0.0000 O   0  0  0  0  0  0  0  0  0  0  0  0
   10.3312   -2.5000    0.0000 O   0  0  0  0  0  0  0  0  0  0  0  0
    6.8671    2.5000    0.0000 O   0  0  0  0  0  0  0  0  0  0  0  0
    5.1350    3.5000    0.0000 O   0  0  0  0  0  0  0  0  0  0  0  0
    3.4030    2.5000    0.0000 O   0  0  0  0  0  0  0  0  0  0  0  0
    2.5369    1.0000    0.0000 O   0  0  0  0  0  0  0  0  0  0  0  0
   12.0632    2.5000    0.0000 O   0  0  0  0  0  0  0  0  0  0  0  0
    7.7331   -1.0000    0.0000 C   0  0  1  0  0  0  0  0  0  0  0  0
    7.7331   -2.0000    0.0000 C   0  0  2  0  0  0  0  0  0  0  0  0
    8.5991   -2.5000    0.0000 C   0  0  1  0  0  0  0  0  0  0  0  0
    9.4651   -2.0000    0.0000 C   0  0  2  0  0  0  0  0  0  0  0  0
    9.4651   -1.0000    0.0000 C   0  0  1  0  0  0  0  0  0  0  0  0
    6.0010    2.0000    0.0000 C   0  0  1  0  0  0  0  0  0  0  0  0
    6.0010    1.0000    0.0000 C   0  0  2  0  0  0  0  0  0  0  0  0
    5.1350    2.5000    0.0000 C   0  0  2  0  0  0  0  0  0  0  0  0
    4.2690    2.0000    0.0000 C   0  0  1  0  0  0  0  0  0  0  0  0
    6.8671   -0.5000    0.0000 C   0  0  0  0  0  0  0  0  0  0  0  0
    4.2690    1.0000    0.0000 C   0  0  1  0  0  0  0  0  0  0  0  0
    3.4030    0.5000    0.0000 C   0  0  0  0  0  0  0  0  0  0  0  0
   10.3312    0.5000    0.0000 C   0  0  1  0  0  0  0  0  0  0  0  0
   11.1972    1.0000    0.0000 C   0  0  0  0  0  0  0  0  0  0  0  0
    9.4651    1.0000    0.0000 C   0  0  0  0  0  0  0  0  0  0  0  0
   11.1972    2.0000    0.0000 C   0  0  2  0  0  0  0  0  0  0  0  0
   10.3312    2.5000    0.0000 C   0  0  0  0  0  0  0  0  0  0  0  0
    7.7331   -0.3800    0.0000 H   0  0  0  0  0  0  0  0  0  0  0  0
    7.7331   -2.6200    0.0000 H   0  0  0  0  0  0  0  0  0  0  0  0
    9.1360   -2.8100    0.0000 H   0  0  0  0  0  0  0  0  0  0  0  0
    9.4651   -2.6200    0.0000 H   0  0  0  0  0  0  0  0  0  0  0  0
   10.0021   -1.3100    0.0000 H   0  0  0  0  0  0  0  0  0  0  0  0
    6.0010    2.6200    0.0000 H   0  0  0  0  0  0  0  0  0  0  0  0
    6.5380    1.3100    0.0000 H   0  0  0  0  0  0  0  0  0  0  0  0
    4.5981    2.8100    0.0000 H   0  0  0  0  0  0  0  0  0  0  0  0
    4.2690    2.6200    0.0000 H   0  0  0  0  0  0  0  0  0  0  0  0
    6.2565   -0.3923    0.0000 H   0  0  0  0  0  0  0  0  0  0  0  0
    6.6550   -1.0826    0.0000 H   0  0  0  0  0  0  0  0  0  0  0  0
    4.2690    0.3800    0.0000 H   0  0  0  0  0  0  0  0  0  0  0  0
    3.0044    0.0251    0.0000 H   0  0  0  0  0  0  0  0  0  0  0  0
    3.8015    0.0251    0.0000 H   0  0  0  0  0  0  0  0  0  0  0  0
    9.7942    0.1900    0.0000 H   0  0  0  0  0  0  0  0  0  0  0  0
    6.3301   -2.1900    0.0000 H   0  0  0  0  0  0  0  0  0  0  0  0
    8.0622   -3.8100    0.0000 H   0  0  0  0  0  0  0  0  0  0  0  0
   10.8681   -2.1900    0.0000 H   0  0  0  0  0  0  0  0  0  0  0  0
   11.4092    0.4174    0.0000 H   0  0  0  0  0  0  0  0  0  0  0  0
   11.8078    1.1077    0.0000 H   0  0  0  0  0  0  0  0  0  0  0  0
    6.8671    3.1200    0.0000 H   0  0  0  0  0  0  0  0  0  0  0  0
    4.5981    3.8100    0.0000 H   0  0  0  0  0  0  0  0  0  0  0  0
    3.4030    3.1200    0.0000 H   0  0  0  0  0  0  0  0  0  0  0  0
    9.7751    1.5369    0.0000 H   0  0  0  0  0  0  0  0  0  0  0  0
    8.9282    1.3100    0.0000 H   0  0  0  0  0  0  0  0  0  0  0  0
    9.1551    0.4631    0.0000 H   0  0  0  0  0  0  0  0  0  0  0  0
   11.7341    1.6900    0.0000 H   0  0  0  0  0  0  0  0  0  0  0  0
    2.0000    0.6900    0.0000 H   0  0  0  0  0  0  0  0  0  0  0  0
   10.6412    3.0369    0.0000 H   0  0  0  0  0  0  0  0  0  0  0  0
    9.7942    2.8100    0.0000 H   0  0  0  0  0  0  0  0  0  0  0  0
   10.0212    1.9631    0.0000 H   0  0  0  0  0  0  0  0  0  0  0  0
   12.0632    3.1200    0.0000 H   0  0  0  0  0  0  0  0  0  0  0  0
  1 13  1  0  0  0  0
  1 17  1  0  0  0  0
 19  2  1  6  0  0  0
  2 22  1  0  0  0  0
  3 19  1  0  0  0  0
  3 23  1  0  0  0  0
 17  4  1  1  0  0  0
 25  4  1  6  0  0  0
 14  5  1  6  0  0  0
  5 45  1  0  0  0  0
 15  6  1  1  0  0  0
  6 46  1  0  0  0  0
 16  7  1  6  0  0  0
  7 47  1  0  0  0  0
 18  8  1  1  0  0  0
  8 50  1  0  0  0  0
 20  9  1  6  0  0  0
  9 51  1  0  0  0  0
 21 10  1  1  0  0  0
 10 52  1  0  0  0  0
 11 24  1  0  0  0  0
 11 57  1  0  0  0  0
 28 12  1  6  0  0  0
 12 61  1  0  0  0  0
 13 14  1  0  0  0  0
 13 22  1  1  0  0  0
 13 30  1  0  0  0  0
 14 15  1  0  0  0  0
 14 31  1  0  0  0  0
 15 16  1  0  0  0  0
 15 32  1  0  0  0  0
 16 17  1  0  0  0  0
 16 33  1  0  0  0  0
 17 34  1  0  0  0  0
 18 19  1  0  0  0  0
 18 20  1  0  0  0  0
 18 35  1  0  0  0  0
 19 36  1  0  0  0  0
 20 21  1  0  0  0  0
 20 37  1  0  0  0  0
 21 23  1  0  0  0  0
 21 38  1  0  0  0  0
 22 39  1  0  0  0  0
 22 40  1  0  0  0  0
 23 24  1  6  0  0  0
 23 41  1  0  0  0  0
 24 42  1  0  0  0  0
 24 43  1  0  0  0  0
 25 26  1  0  0  0  0
 25 27  1  0  0  0  0
 25 44  1  0  0  0  0
 26 28  1  0  0  0  0
 26 48  1  0  0  0  0
 26 49  1  0  0  0  0
 27 53  1  0  0  0  0
 27 54  1  0  0  0  0
 27 55  1  0  0  0  0
 28 29  1  0  0  0  0
 28 56  1  0  0  0  0
 29 58  1  0  0  0  0
 29 59  1  0  0  0  0
 29 60  1  0  0  0  0
M  END
> <PUBCHEM_COMPOUND_CID>
101938890

> <PUBCHEM_COMPOUND_CANONICALIZED>
1

> <PUBCHEM_CACTVS_COMPLEXITY>
495

> <PUBCHEM_CACTVS_HBOND_ACCEPTOR>
12

> <PUBCHEM_CACTVS_HBOND_DONOR>
8

> <PUBCHEM_CACTVS_ROTATABLE_BOND>
8

> <PUBCHEM_CACTVS_SUBSKEYS>
AAADcfB4PAAAAAAAAAAAAAAAAAAAAAAAAAAkSAAAAAAAAAAAAAAAGgAACAAACBSwgAMCCAAABgAAAAAAAAAAAAAAAAAAAAAAAAAREAIAAAAiQAAFAAAHAAHAYAwAAAAAAAAAAAAAAAAAAAAAAAAAAAAAAA==

> <PUBCHEM_IUPAC_OPENEYE_NAME>
(2R,3S,4S,5R,6R)-2-(hydroxymethyl)-6-[[(2R,3S,4S,5R,6R)-3,4,5-trihydroxy-6-[(1R,3S)-3-hydroxy-1-methyl-butoxy]tetrahydropyran-2-yl]methoxy]tetrahydropyran-3,4,5-triol

> <PUBCHEM_IUPAC_CAS_NAME>
(2R,3S,4S,5R,6R)-2-(hydroxymethyl)-6-[[(2R,3S,4S,5R,6R)-3,4,5-trihydroxy-6-[(2R,4S)-4-hydroxypentan-2-yl]oxy-2-oxanyl]methoxy]oxane-3,4,5-triol

> <PUBCHEM_IUPAC_NAME_MARKUP>
(2<I>R</I>,3<I>S</I>,4<I>S</I>,5<I>R</I>,6<I>R</I>)-2-(hydroxymethyl)-6-[[(2<I>R</I>,3<I>S</I>,4<I>S</I>,5<I>R</I>,6<I>R</I>)-3,4,5-trihydroxy-6-[(2<I>R</I>,4<I>S</I>)-4-hydroxypentan-2-yl]oxyoxan-2-yl]methoxy]oxane-3,4,5-triol

> <PUBCHEM_IUPAC_NAME>
(2R,3S,4S,5R,6R)-2-(hydroxymethyl)-6-[[(2R,3S,4S,5R,6R)-3,4,5-trihydroxy-6-[(2R,4S)-4-hydroxypentan-2-yl]oxyoxan-2-yl]methoxy]oxane-3,4,5-triol

> <PUBCHEM_IUPAC_SYSTEMATIC_NAME>
(2R,3S,4S,5R,6R)-2-(hydroxymethyl)-6-[[(2R,3S,4S,5R,6R)-3,4,5-tris(oxidanyl)-6-[(2R,4S)-4-oxidanylpentan-2-yl]oxy-oxan-2-yl]methoxy]oxane-3,4,5-triol

> <PUBCHEM_IUPAC_TRADITIONAL_NAME>
(2R,3S,4S,5R,6R)-2-methylol-6-[[(2R,3S,4S,5R,6R)-3,4,5-trihydroxy-6-[(1R,3S)-3-hydroxy-1-methyl-butoxy]tetrahydropyran-2-yl]methoxy]tetrahydropyran-3,4,5-triol

> <PUBCHEM_IUPAC_INCHI>
InChI=1S/C17H32O12/c1-6(19)3-7(2)27-17-15(25)13(23)11(21)9(29-17)5-26-16-14(24)12(22)10(20)8(4-18)28-16/h6-25H,3-5H2,1-2H3/t6-,7+,8+,9+,10+,11+,12-,13-,14+,15+,16+,17+/m0/s1

> <PUBCHEM_IUPAC_INCHIKEY>
NFGPYCZFEDGPHD-PIYYPFKRSA-N

> <PUBCHEM_XLOGP3_AA>
-3.7

> <PUBCHEM_EXACT_MASS>
428.18937645

> <PUBCHEM_MOLECULAR_FORMULA>
C17H32O12

> <PUBCHEM_MOLECULAR_WEIGHT>
428.4

> <PUBCHEM_OPENEYE_CAN_SMILES>
CC(CC(C)OC1C(C(C(C(O1)COC2C(C(C(C(O2)CO)O)O)O)O)O)O)O

> <PUBCHEM_OPENEYE_ISO_SMILES>
C[C@@H](C[C@@H](C)O[C@H]1[C@@H]([C@H]([C@@H]([C@H](O1)CO[C@H]2[C@@H]([C@H]([C@@H]([C@H](O2)CO)O)O)O)O)O)O)O

> <PUBCHEM_CACTVS_TPSA>
199

> <PUBCHEM_MONOISOTOPIC_WEIGHT>
428.18937645

> <PUBCHEM_TOTAL_CHARGE>
0

> <PUBCHEM_HEAVY_ATOM_COUNT>
29

> <PUBCHEM_ATOM_DEF_STEREO_COUNT>
12

> <PUBCHEM_ATOM_UDEF_STEREO_COUNT>
0

> <PUBCHEM_BOND_DEF_STEREO_COUNT>
0

> <PUBCHEM_BOND_UDEF_STEREO_COUNT>
0

> <PUBCHEM_ISOTOPIC_ATOM_COUNT>
0

> <PUBCHEM_COMPONENT_COUNT>
1

> <PUBCHEM_CACTVS_TAUTO_COUNT>
-1

> <PUBCHEM_COORDINATE_TYPE>
1
5
255

> <PUBCHEM_BONDANNOTATIONS>
21  10  5
28  12  6
13  22  5
19  2  6
23  24  6
17  4  5
25  4  6
14  5  6
15  6  5
16  7  6
18  8  5
20  9  6

$$$$
