 
  -OEChem-10192103522D

 55 56  0     1  0  0  0  0  0999 V2000
    6.3301    1.7500    0.0000 O   0  0  0  0  0  0  0  0  0  0  0  0
    8.0622   -1.2500    0.0000 O   0  0  0  0  0  0  0  0  0  0  0  0
    5.4641    0.2500    0.0000 O   0  0  0  0  0  0  0  0  0  0  0  0
    3.7320    3.2500    0.0000 O   0  0  0  0  0  0  0  0  0  0  0  0
    6.3301   -3.2500    0.0000 O   0  0  0  0  0  0  0  0  0  0  0  0
    5.4641    4.2500    0.0000 O   0  0  0  0  0  0  0  0  0  0  0  0
    8.0622   -4.2500    0.0000 O   0  0  0  0  0  0  0  0  0  0  0  0
    5.4641   -1.7500    0.0000 O   0  0  0  0  0  0  0  0  0  0  0  0
    9.7942   -3.2500    0.0000 O   0  0  0  0  0  0  0  0  0  0  0  0
    9.7942   -1.2500    0.0000 O   0  0  0  0  0  0  0  0  0  0  0  0
    7.1962    4.2500    0.0000 O   0  0  0  0  0  0  0  0  0  0  0  0
    2.8660    2.7500    0.0000 O   0  0  0  0  0  0  0  0  0  0  0  0
    3.7320    1.2500    0.0000 N   0  0  0  0  0  0  0  0  0  0  0  0
    4.5981    1.7500    0.0000 C   0  0  2  0  0  0  0  0  0  0  0  0
    7.1962   -1.7500    0.0000 C   0  0  1  0  0  0  0  0  0  0  0  0
    4.5981    2.7500    0.0000 C   0  0  2  0  0  0  0  0  0  0  0  0
    5.4641    1.2500    0.0000 C   0  0  1  0  0  0  0  0  0  0  0  0
    7.1962   -2.7500    0.0000 C   0  0  2  0  0  0  0  0  0  0  0  0
    5.4641    3.2500    0.0000 C   0  0  1  0  0  0  0  0  0  0  0  0
    6.3301    2.7500    0.0000 C   0  0  1  0  0  0  0  0  0  0  0  0
    8.0622   -3.2500    0.0000 C   0  0  1  0  0  0  0  0  0  0  0  0
    6.3301   -1.2500    0.0000 C   0  0  2  0  0  0  0  0  0  0  0  0
    8.9282   -2.7500    0.0000 C   0  0  1  0  0  0  0  0  0  0  0  0
    6.3301   -0.2500    0.0000 C   0  0  0  0  0  0  0  0  0  0  0  0
    8.9282   -1.7500    0.0000 C   0  0  2  0  0  0  0  0  0  0  0  0
    7.1962    3.2500    0.0000 C   0  0  0  0  0  0  0  0  0  0  0  0
    2.8660    1.7500    0.0000 C   0  0  0  0  0  0  0  0  0  0  0  0
    2.0000    1.2500    0.0000 C   0  0  0  0  0  0  0  0  0  0  0  0
    4.0611    2.0600    0.0000 H   0  0  0  0  0  0  0  0  0  0  0  0
    7.1962   -0.9000    0.0000 H   0  0  0  0  0  0  0  0  0  0  0  0
    4.5981    3.3700    0.0000 H   0  0  0  0  0  0  0  0  0  0  0  0
    4.9272    0.9400    0.0000 H   0  0  0  0  0  0  0  0  0  0  0  0
    7.1962   -3.3700    0.0000 H   0  0  0  0  0  0  0  0  0  0  0  0
    6.0010    3.5600    0.0000 H   0  0  0  0  0  0  0  0  0  0  0  0
    6.8671    2.4400    0.0000 H   0  0  0  0  0  0  0  0  0  0  0  0
    8.5991   -3.5600    0.0000 H   0  0  0  0  0  0  0  0  0  0  0  0
    5.7932   -0.9400    0.0000 H   0  0  0  0  0  0  0  0  0  0  0  0
    8.9282   -3.3700    0.0000 H   0  0  0  0  0  0  0  0  0  0  0  0
    6.9407   -0.3577    0.0000 H   0  0  0  0  0  0  0  0  0  0  0  0
    6.5422    0.3326    0.0000 H   0  0  0  0  0  0  0  0  0  0  0  0
    9.4651   -2.0600    0.0000 H   0  0  0  0  0  0  0  0  0  0  0  0
    3.7320    0.6300    0.0000 H   0  0  0  0  0  0  0  0  0  0  0  0
    7.4082    2.6674    0.0000 H   0  0  0  0  0  0  0  0  0  0  0  0
    7.8067    3.3577    0.0000 H   0  0  0  0  0  0  0  0  0  0  0  0
    3.7320    3.8700    0.0000 H   0  0  0  0  0  0  0  0  0  0  0  0
    6.3301   -3.8700    0.0000 H   0  0  0  0  0  0  0  0  0  0  0  0
    4.9272    4.5600    0.0000 H   0  0  0  0  0  0  0  0  0  0  0  0
    8.5991   -4.5600    0.0000 H   0  0  0  0  0  0  0  0  0  0  0  0
    4.9272   -1.4400    0.0000 H   0  0  0  0  0  0  0  0  0  0  0  0
   10.3312   -2.9400    0.0000 H   0  0  0  0  0  0  0  0  0  0  0  0
    9.7942   -0.6300    0.0000 H   0  0  0  0  0  0  0  0  0  0  0  0
    7.7331    4.5600    0.0000 H   0  0  0  0  0  0  0  0  0  0  0  0
    1.6900    1.7869    0.0000 H   0  0  0  0  0  0  0  0  0  0  0  0
    1.4631    0.9400    0.0000 H   0  0  0  0  0  0  0  0  0  0  0  0
    2.3100    0.7131    0.0000 H   0  0  0  0  0  0  0  0  0  0  0  0
  1 17  1  0  0  0  0
  1 20  1  0  0  0  0
  2 15  1  0  0  0  0
  2 25  1  0  0  0  0
 17  3  1  1  0  0  0
  3 24  1  0  0  0  0
 16  4  1  1  0  0  0
  4 45  1  0  0  0  0
 18  5  1  6  0  0  0
  5 46  1  0  0  0  0
 19  6  1  6  0  0  0
  6 47  1  0  0  0  0
 21  7  1  1  0  0  0
  7 48  1  0  0  0  0
 22  8  1  1  0  0  0
  8 49  1  0  0  0  0
 23  9  1  1  0  0  0
  9 50  1  0  0  0  0
 25 10  1  6  0  0  0
 10 51  1  0  0  0  0
 11 26  1  0  0  0  0
 11 52  1  0  0  0  0
 12 27  2  0  0  0  0
 14 13  1  6  0  0  0
 13 27  1  0  0  0  0
 13 42  1  0  0  0  0
 14 16  1  0  0  0  0
 14 17  1  0  0  0  0
 14 29  1  0  0  0  0
 15 18  1  0  0  0  0
 15 22  1  0  0  0  0
 15 30  1  6  0  0  0
 16 19  1  0  0  0  0
 16 31  1  0  0  0  0
 17 32  1  0  0  0  0
 18 21  1  0  0  0  0
 18 33  1  0  0  0  0
 19 20  1  0  0  0  0
 19 34  1  0  0  0  0
 20 26  1  1  0  0  0
 20 35  1  0  0  0  0
 21 23  1  0  0  0  0
 21 36  1  0  0  0  0
 22 24  1  0  0  0  0
 22 37  1  0  0  0  0
 23 25  1  0  0  0  0
 23 38  1  0  0  0  0
 24 39  1  0  0  0  0
 24 40  1  0  0  0  0
 25 41  1  0  0  0  0
 26 43  1  0  0  0  0
 26 44  1  0  0  0  0
 27 28  1  0  0  0  0
 28 53  1  0  0  0  0
 28 54  1  0  0  0  0
 28 55  1  0  0  0  0
M  END
> <PUBCHEM_COMPOUND_CID>
91846250

> <PUBCHEM_COMPOUND_CANONICALIZED>
1

> <PUBCHEM_CACTVS_COMPLEXITY>
523

> <PUBCHEM_CACTVS_HBOND_ACCEPTOR>
12

> <PUBCHEM_CACTVS_HBOND_DONOR>
9

> <PUBCHEM_CACTVS_ROTATABLE_BOND>
6

> <PUBCHEM_CACTVS_SUBSKEYS>
AAADceByPAAAAAAAAAAAAAAAAAAAAAAAAAAkSAAAAAAAAAAAAAAAHgAQCAAACDzxgAcCCALABgAIAAEQEAAAAAAAAAAAAIAIAAATEAIAgAAnQAAHFgCXAAHw8C8AAAAAAAAAAAAAAAAAAAAAAAAAAAAAAA==

> <PUBCHEM_IUPAC_OPENEYE_NAME>
N-[(2R,3R,4R,5S,6R)-4,5-dihydroxy-6-(hydroxymethyl)-2-[(2S)-2-hydroxy-2-[(2R,3S,4S,5S,6S)-3,4,5,6-tetrahydroxytetrahydropyran-2-yl]ethoxy]tetrahydropyran-3-yl]acetamide

> <PUBCHEM_IUPAC_CAS_NAME>
N-[(2R,3R,4R,5S,6R)-4,5-dihydroxy-6-(hydroxymethyl)-2-[(2S)-2-hydroxy-2-[(2R,3S,4S,5S,6S)-3,4,5,6-tetrahydroxy-2-oxanyl]ethoxy]-3-oxanyl]acetamide

> <PUBCHEM_IUPAC_NAME_MARKUP>
<I>N</I>-[(2<I>R</I>,3<I>R</I>,4<I>R</I>,5<I>S</I>,6<I>R</I>)-4,5-dihydroxy-6-(hydroxymethyl)-2-[(2<I>S</I>)-2-hydroxy-2-[(2<I>R</I>,3<I>S</I>,4<I>S</I>,5<I>S</I>,6<I>S</I>)-3,4,5,6-tetrahydroxyoxan-2-yl]ethoxy]oxan-3-yl]acetamide

> <PUBCHEM_IUPAC_NAME>
N-[(2R,3R,4R,5S,6R)-4,5-dihydroxy-6-(hydroxymethyl)-2-[(2S)-2-hydroxy-2-[(2R,3S,4S,5S,6S)-3,4,5,6-tetrahydroxyoxan-2-yl]ethoxy]oxan-3-yl]acetamide

> <PUBCHEM_IUPAC_SYSTEMATIC_NAME>
N-[(2R,3R,4R,5S,6R)-6-(hydroxymethyl)-4,5-bis(oxidanyl)-2-[(2S)-2-oxidanyl-2-[(2R,3S,4S,5S,6S)-3,4,5,6-tetrakis(oxidanyl)oxan-2-yl]ethoxy]oxan-3-yl]ethanamide

> <PUBCHEM_IUPAC_TRADITIONAL_NAME>
N-[(2R,3R,4R,5S,6R)-4,5-dihydroxy-2-[(2S)-2-hydroxy-2-[(2R,3S,4S,5S,6S)-3,4,5,6-tetrahydroxytetrahydropyran-2-yl]ethoxy]-6-methylol-tetrahydropyran-3-yl]acetamide

> <PUBCHEM_IUPAC_INCHI>
InChI=1S/C15H27NO12/c1-4(18)16-7-9(21)8(20)6(2-17)27-15(7)26-3-5(19)13-11(23)10(22)12(24)14(25)28-13/h5-15,17,19-25H,2-3H2,1H3,(H,16,18)/t5-,6+,7+,8+,9+,10-,11-,12-,13+,14-,15+/m0/s1

> <PUBCHEM_IUPAC_INCHIKEY>
HCCMHODOTGMJRN-YQWWEXGDSA-N

> <PUBCHEM_XLOGP3_AA>
-4.8

> <PUBCHEM_EXACT_MASS>
413.15332530

> <PUBCHEM_MOLECULAR_FORMULA>
C15H27NO12

> <PUBCHEM_MOLECULAR_WEIGHT>
413.37

> <PUBCHEM_OPENEYE_CAN_SMILES>
CC(=O)NC1C(C(C(OC1OCC(C2C(C(C(C(O2)O)O)O)O)O)CO)O)O

> <PUBCHEM_OPENEYE_ISO_SMILES>
CC(=O)N[C@@H]1[C@H]([C@@H]([C@H](O[C@H]1OC[C@@H]([C@@H]2[C@H]([C@@H]([C@@H]([C@H](O2)O)O)O)O)O)CO)O)O

> <PUBCHEM_CACTVS_TPSA>
219

> <PUBCHEM_MONOISOTOPIC_WEIGHT>
413.15332530

> <PUBCHEM_TOTAL_CHARGE>
0

> <PUBCHEM_HEAVY_ATOM_COUNT>
28

> <PUBCHEM_ATOM_DEF_STEREO_COUNT>
11

> <PUBCHEM_ATOM_UDEF_STEREO_COUNT>
0

> <PUBCHEM_BOND_DEF_STEREO_COUNT>
0

> <PUBCHEM_BOND_UDEF_STEREO_COUNT>
0

> <PUBCHEM_ISOTOPIC_ATOM_COUNT>
0

> <PUBCHEM_COMPONENT_COUNT>
1

> <PUBCHEM_CACTVS_TAUTO_COUNT>
-1

> <PUBCHEM_COORDINATE_TYPE>
1
5
255

> <PUBCHEM_BONDANNOTATIONS>
25  10  6
14  13  6
15  30  6
20  26  5
17  3  5
16  4  5
18  5  6
19  6  6
21  7  5
22  8  5
23  9  5

$$$$
