 
  -OEChem-10192104282D

 89 89  0     1  0  0  0  0  0999 V2000
   15.5273    1.0000    0.0000 O   0  0  0  0  0  0  0  0  0  0  0  0
   17.2594    2.0000    0.0000 O   0  0  0  0  0  0  0  0  0  0  0  0
   18.9914    1.0000    0.0000 O   0  0  0  0  0  0  0  0  0  0  0  0
   18.9914   -1.0000    0.0000 O   0  0  0  0  0  0  0  0  0  0  0  0
   15.5273   -2.0000    0.0000 O   0  0  0  0  0  0  0  0  0  0  0  0
   14.6613   -0.5000    0.0000 O   0  0  0  0  0  0  0  0  0  0  0  0
   18.9914    2.0000    0.0000 O   0  0  0  0  0  0  0  0  0  0  0  0
   19.8574   -0.5000    0.0000 O   0  0  0  0  0  0  0  0  0  0  0  0
   18.1254   -2.5000    0.0000 O   0  0  0  0  0  0  0  0  0  0  0  0
   13.7953   -2.0000    0.0000 O   0  0  0  0  0  0  0  0  0  0  0  0
    4.2690   -0.5000    0.0000 O   0  0  0  0  0  0  0  0  0  0  0  0
    2.5369    0.5000    0.0000 O   0  0  0  0  0  0  0  0  0  0  0  0
   16.3933   -0.5000    0.0000 C   0  0  2  0  0  0  0  0  0  0  0  0
   16.3933    0.5000    0.0000 C   0  0  2  0  0  0  0  0  0  0  0  0
   17.2594    1.0000    0.0000 C   0  0  1  0  0  0  0  0  0  0  0  0
   17.2594   -1.0000    0.0000 C   0  0  0  0  0  0  0  0  0  0  0  0
   18.1254    0.5000    0.0000 C   0  0  2  0  0  0  0  0  0  0  0  0
   18.1254   -0.5000    0.0000 C   0  0  2  0  0  0  0  0  0  0  0  0
   15.5273   -1.0000    0.0000 C   0  0  0  0  0  0  0  0  0  0  0  0
   14.6613    0.5000    0.0000 C   0  0  0  0  0  0  0  0  0  0  0  0
   18.1254    2.5000    0.0000 C   0  0  0  0  0  0  0  0  0  0  0  0
   19.8574    0.5000    0.0000 C   0  0  0  0  0  0  0  0  0  0  0  0
   18.9914   -2.0000    0.0000 C   0  0  0  0  0  0  0  0  0  0  0  0
   13.7953    1.0000    0.0000 C   0  0  0  0  0  0  0  0  0  0  0  0
   12.9292    0.5000    0.0000 C   0  0  0  0  0  0  0  0  0  0  0  0
   14.6613   -2.5000    0.0000 C   0  0  0  0  0  0  0  0  0  0  0  0
   12.0632    1.0000    0.0000 C   0  0  0  0  0  0  0  0  0  0  0  0
   18.1254    3.5000    0.0000 C   0  0  0  0  0  0  0  0  0  0  0  0
   20.7235    1.0000    0.0000 C   0  0  0  0  0  0  0  0  0  0  0  0
   19.8574   -2.5000    0.0000 C   0  0  0  0  0  0  0  0  0  0  0  0
   11.1972    0.5000    0.0000 C   0  0  0  0  0  0  0  0  0  0  0  0
   10.3312    1.0000    0.0000 C   0  0  0  0  0  0  0  0  0  0  0  0
    9.4651    0.5000    0.0000 C   0  0  0  0  0  0  0  0  0  0  0  0
    8.5991    1.0000    0.0000 C   0  0  0  0  0  0  0  0  0  0  0  0
   14.6613   -3.5000    0.0000 C   0  0  0  0  0  0  0  0  0  0  0  0
    7.7331    0.5000    0.0000 C   0  0  0  0  0  0  0  0  0  0  0  0
    6.8671    1.0000    0.0000 C   0  0  0  0  0  0  0  0  0  0  0  0
    6.0010    0.5000    0.0000 C   0  0  0  0  0  0  0  0  0  0  0  0
    5.1350    1.0000    0.0000 C   0  0  0  0  0  0  0  0  0  0  0  0
    4.2690    0.5000    0.0000 C   0  0  3  0  0  0  0  0  0  0  0  0
    3.4030    1.0000    0.0000 C   0  0  0  0  0  0  0  0  0  0  0  0
   16.9303   -0.8100    0.0000 H   0  0  0  0  0  0  0  0  0  0  0  0
   15.8564    0.1900    0.0000 H   0  0  0  0  0  0  0  0  0  0  0  0
   16.7224    1.3100    0.0000 H   0  0  0  0  0  0  0  0  0  0  0  0
   16.8608   -1.4750    0.0000 H   0  0  0  0  0  0  0  0  0  0  0  0
   17.6579   -1.4750    0.0000 H   0  0  0  0  0  0  0  0  0  0  0  0
   18.1254    1.1200    0.0000 H   0  0  0  0  0  0  0  0  0  0  0  0
   18.1254   -1.1200    0.0000 H   0  0  0  0  0  0  0  0  0  0  0  0
   15.3153   -0.4174    0.0000 H   0  0  0  0  0  0  0  0  0  0  0  0
   14.9167   -1.1077    0.0000 H   0  0  0  0  0  0  0  0  0  0  0  0
   14.1938    1.4750    0.0000 H   0  0  0  0  0  0  0  0  0  0  0  0
   13.3967    1.4750    0.0000 H   0  0  0  0  0  0  0  0  0  0  0  0
   12.5307    0.0251    0.0000 H   0  0  0  0  0  0  0  0  0  0  0  0
   13.3278    0.0251    0.0000 H   0  0  0  0  0  0  0  0  0  0  0  0
   12.4617    1.4750    0.0000 H   0  0  0  0  0  0  0  0  0  0  0  0
   11.6647    1.4750    0.0000 H   0  0  0  0  0  0  0  0  0  0  0  0
   18.7454    3.5000    0.0000 H   0  0  0  0  0  0  0  0  0  0  0  0
   18.1254    4.1200    0.0000 H   0  0  0  0  0  0  0  0  0  0  0  0
   17.5054    3.5000    0.0000 H   0  0  0  0  0  0  0  0  0  0  0  0
   21.0335    0.4631    0.0000 H   0  0  0  0  0  0  0  0  0  0  0  0
   21.2604    1.3100    0.0000 H   0  0  0  0  0  0  0  0  0  0  0  0
   20.4135    1.5369    0.0000 H   0  0  0  0  0  0  0  0  0  0  0  0
   19.5474   -3.0369    0.0000 H   0  0  0  0  0  0  0  0  0  0  0  0
   20.3944   -2.8100    0.0000 H   0  0  0  0  0  0  0  0  0  0  0  0
   20.1674   -1.9631    0.0000 H   0  0  0  0  0  0  0  0  0  0  0  0
   10.7987    0.0251    0.0000 H   0  0  0  0  0  0  0  0  0  0  0  0
   11.5957    0.0251    0.0000 H   0  0  0  0  0  0  0  0  0  0  0  0
   10.7297    1.4750    0.0000 H   0  0  0  0  0  0  0  0  0  0  0  0
    9.9326    1.4750    0.0000 H   0  0  0  0  0  0  0  0  0  0  0  0
    9.0666    0.0251    0.0000 H   0  0  0  0  0  0  0  0  0  0  0  0
    9.8637    0.0251    0.0000 H   0  0  0  0  0  0  0  0  0  0  0  0
    8.9976    1.4750    0.0000 H   0  0  0  0  0  0  0  0  0  0  0  0
    8.2006    1.4750    0.0000 H   0  0  0  0  0  0  0  0  0  0  0  0
   14.0413   -3.5000    0.0000 H   0  0  0  0  0  0  0  0  0  0  0  0
   14.6613   -4.1200    0.0000 H   0  0  0  0  0  0  0  0  0  0  0  0
   15.2813   -3.5000    0.0000 H   0  0  0  0  0  0  0  0  0  0  0  0
    7.3346    0.0251    0.0000 H   0  0  0  0  0  0  0  0  0  0  0  0
    8.1316    0.0251    0.0000 H   0  0  0  0  0  0  0  0  0  0  0  0
    7.2656    1.4750    0.0000 H   0  0  0  0  0  0  0  0  0  0  0  0
    6.4685    1.4750    0.0000 H   0  0  0  0  0  0  0  0  0  0  0  0
    5.6025    0.0251    0.0000 H   0  0  0  0  0  0  0  0  0  0  0  0
    6.3996    0.0251    0.0000 H   0  0  0  0  0  0  0  0  0  0  0  0
    5.5335    1.4750    0.0000 H   0  0  0  0  0  0  0  0  0  0  0  0
    4.7365    1.4750    0.0000 H   0  0  0  0  0  0  0  0  0  0  0  0
    4.8059    0.1900    0.0000 H   0  0  0  0  0  0  0  0  0  0  0  0
    3.8015    1.4750    0.0000 H   0  0  0  0  0  0  0  0  0  0  0  0
    3.0044    1.4750    0.0000 H   0  0  0  0  0  0  0  0  0  0  0  0
    3.7320   -0.8100    0.0000 H   0  0  0  0  0  0  0  0  0  0  0  0
    2.0000    0.8100    0.0000 H   0  0  0  0  0  0  0  0  0  0  0  0
 14  1  1  1  0  0  0
  1 20  1  0  0  0  0
 15  2  1  6  0  0  0
  2 21  1  0  0  0  0
 17  3  1  1  0  0  0
  3 22  1  0  0  0  0
 18  4  1  6  0  0  0
  4 23  1  0  0  0  0
  5 19  1  0  0  0  0
  5 26  1  0  0  0  0
  6 20  2  0  0  0  0
  7 21  2  0  0  0  0
  8 22  2  0  0  0  0
  9 23  2  0  0  0  0
 10 26  2  0  0  0  0
 11 40  1  0  0  0  0
 11 88  1  0  0  0  0
 12 41  1  0  0  0  0
 12 89  1  0  0  0  0
 13 14  1  0  0  0  0
 13 16  1  0  0  0  0
 13 19  1  6  0  0  0
 13 42  1  0  0  0  0
 14 15  1  0  0  0  0
 14 43  1  0  0  0  0
 15 17  1  0  0  0  0
 15 44  1  0  0  0  0
 16 18  1  0  0  0  0
 16 45  1  0  0  0  0
 16 46  1  0  0  0  0
 17 18  1  0  0  0  0
 17 47  1  0  0  0  0
 18 48  1  0  0  0  0
 19 49  1  0  0  0  0
 19 50  1  0  0  0  0
 20 24  1  0  0  0  0
 21 28  1  0  0  0  0
 22 29  1  0  0  0  0
 23 30  1  0  0  0  0
 24 25  1  0  0  0  0
 24 51  1  0  0  0  0
 24 52  1  0  0  0  0
 25 27  1  0  0  0  0
 25 53  1  0  0  0  0
 25 54  1  0  0  0  0
 26 35  1  0  0  0  0
 27 31  1  0  0  0  0
 27 55  1  0  0  0  0
 27 56  1  0  0  0  0
 28 57  1  0  0  0  0
 28 58  1  0  0  0  0
 28 59  1  0  0  0  0
 29 60  1  0  0  0  0
 29 61  1  0  0  0  0
 29 62  1  0  0  0  0
 30 63  1  0  0  0  0
 30 64  1  0  0  0  0
 30 65  1  0  0  0  0
 31 32  1  0  0  0  0
 31 66  1  0  0  0  0
 31 67  1  0  0  0  0
 32 33  1  0  0  0  0
 32 68  1  0  0  0  0
 32 69  1  0  0  0  0
 33 34  1  0  0  0  0
 33 70  1  0  0  0  0
 33 71  1  0  0  0  0
 34 36  1  0  0  0  0
 34 72  1  0  0  0  0
 34 73  1  0  0  0  0
 35 74  1  0  0  0  0
 35 75  1  0  0  0  0
 35 76  1  0  0  0  0
 36 37  1  0  0  0  0
 36 77  1  0  0  0  0
 36 78  1  0  0  0  0
 37 38  1  0  0  0  0
 37 79  1  0  0  0  0
 37 80  1  0  0  0  0
 38 39  1  0  0  0  0
 38 81  1  0  0  0  0
 38 82  1  0  0  0  0
 39 40  1  0  0  0  0
 39 83  1  0  0  0  0
 39 84  1  0  0  0  0
 40 41  1  0  0  0  0
 40 85  1  0  0  0  0
 41 86  1  0  0  0  0
 41 87  1  0  0  0  0
M  END
> <PUBCHEM_COMPOUND_CID>
135173210

> <PUBCHEM_COMPOUND_CANONICALIZED>
1

> <PUBCHEM_CACTVS_COMPLEXITY>
829

> <PUBCHEM_CACTVS_HBOND_ACCEPTOR>
12

> <PUBCHEM_CACTVS_HBOND_DONOR>
2

> <PUBCHEM_CACTVS_ROTATABLE_BOND>
24

> <PUBCHEM_CACTVS_SUBSKEYS>
AAADcfB4PAAAAAAAAAAAAAAAAAAAAAAAAAAwAAAAAAAAAAAAAAAAGgAACAAADRSggAICCAAABgAIAACQCAAAAAAAAAAAAAEAAAABEBIAAAACQAAFAAADAAHI6LyOAAAAAAAAAABCAAIQABCAAAAAAAAAAA==

> <PUBCHEM_IUPAC_OPENEYE_NAME>
[(1R,2S,3S,4R,6R)-2,3,4-triacetoxy-6-(acetoxymethyl)cyclohexyl] 13,14-dihydroxytetradecanoate

> <PUBCHEM_IUPAC_CAS_NAME>
13,14-dihydroxytetradecanoic acid [(1R,2S,3S,4R,6R)-2,3,4-triacetyloxy-6-(acetyloxymethyl)cyclohexyl] ester

> <PUBCHEM_IUPAC_NAME_MARKUP>
[(1<I>R</I>,2<I>S</I>,3<I>S</I>,4<I>R</I>,6<I>R</I>)-2,3,4-triacetyloxy-6-(acetyloxymethyl)cyclohexyl] 13,14-dihydroxytetradecanoate

> <PUBCHEM_IUPAC_NAME>
[(1R,2S,3S,4R,6R)-2,3,4-triacetyloxy-6-(acetyloxymethyl)cyclohexyl] 13,14-dihydroxytetradecanoate

> <PUBCHEM_IUPAC_SYSTEMATIC_NAME>
[(1R,2S,3S,4R,6R)-2,3,4-triacetyloxy-6-(acetyloxymethyl)cyclohexyl] 13,14-bis(oxidanyl)tetradecanoate

> <PUBCHEM_IUPAC_TRADITIONAL_NAME>
13,14-dihydroxymyristic acid [(1R,2S,3S,4R,6R)-2,3,4-triacetoxy-6-(acetoxymethyl)cyclohexyl] ester

> <PUBCHEM_IUPAC_INCHI>
InChI=1S/C29H48O12/c1-19(31)37-18-23-16-25(38-20(2)32)28(39-21(3)33)29(40-22(4)34)27(23)41-26(36)15-13-11-9-7-5-6-8-10-12-14-24(35)17-30/h23-25,27-30,35H,5-18H2,1-4H3/t23-,24?,25-,27-,28+,29+/m1/s1

> <PUBCHEM_IUPAC_INCHIKEY>
OTDSXGRYGQKHBT-RBQJIYIASA-N

> <PUBCHEM_XLOGP3_AA>
3.8

> <PUBCHEM_EXACT_MASS>
588.31457696

> <PUBCHEM_MOLECULAR_FORMULA>
C29H48O12

> <PUBCHEM_MOLECULAR_WEIGHT>
588.7

> <PUBCHEM_OPENEYE_CAN_SMILES>
CC(=O)OCC1CC(C(C(C1OC(=O)CCCCCCCCCCCC(CO)O)OC(=O)C)OC(=O)C)OC(=O)C

> <PUBCHEM_OPENEYE_ISO_SMILES>
CC(=O)OC[C@H]1C[C@H]([C@@H]([C@H]([C@@H]1OC(=O)CCCCCCCCCCCC(CO)O)OC(=O)C)OC(=O)C)OC(=O)C

> <PUBCHEM_CACTVS_TPSA>
172

> <PUBCHEM_MONOISOTOPIC_WEIGHT>
588.31457696

> <PUBCHEM_TOTAL_CHARGE>
0

> <PUBCHEM_HEAVY_ATOM_COUNT>
41

> <PUBCHEM_ATOM_DEF_STEREO_COUNT>
5

> <PUBCHEM_ATOM_UDEF_STEREO_COUNT>
1

> <PUBCHEM_BOND_DEF_STEREO_COUNT>
0

> <PUBCHEM_BOND_UDEF_STEREO_COUNT>
0

> <PUBCHEM_ISOTOPIC_ATOM_COUNT>
0

> <PUBCHEM_COMPONENT_COUNT>
1

> <PUBCHEM_CACTVS_TAUTO_COUNT>
-1

> <PUBCHEM_COORDINATE_TYPE>
1
5
255

> <PUBCHEM_BONDANNOTATIONS>
14  1  5
40  11  3
13  19  6
15  2  6
17  3  5
18  4  6

$$$$
