 
  -OEChem-10192103502D

 60 62  0     1  0  0  0  0  0999 V2000
    5.8671    0.2747    0.0000 O   0  0  0  0  0  0  0  0  0  0  0  0
    6.8671   -0.7253    0.0000 O   0  0  0  0  0  0  0  0  0  0  0  0
    5.1350   -0.7253    0.0000 O   0  0  0  0  0  0  0  0  0  0  0  0
    8.1271    1.5348    0.0000 O   0  0  0  0  0  0  0  0  0  0  0  0
    6.3671    2.8136    0.0000 O   0  0  0  0  0  0  0  0  0  0  0  0
    6.8671   -2.7253    0.0000 O   0  0  0  0  0  0  0  0  0  0  0  0
    8.5613    0.6349    0.0000 O   0  0  0  0  0  0  0  0  0  0  0  0
    5.1350   -3.7253    0.0000 O   0  0  0  0  0  0  0  0  0  0  0  0
    3.4030   -2.7253    0.0000 O   0  0  0  0  0  0  0  0  0  0  0  0
    4.3991    2.5130    0.0000 O   0  0  0  0  0  0  0  0  0  0  0  0
    2.5369   -1.2253    0.0000 O   0  0  0  0  0  0  0  0  0  0  0  0
    9.7202   -0.6523    0.0000 O   0  0  0  0  0  0  0  0  0  0  0  0
   10.5828    3.6204    0.0000 O   0  0  0  0  0  0  0  0  0  0  0  0
   12.9007    1.0461    0.0000 O   0  0  0  0  0  0  0  0  0  0  0  0
   12.4849    3.0024    0.0000 O   0  0  0  0  0  0  0  0  0  0  0  0
    6.8671    0.2747    0.0000 C   0  0  3  0  0  0  0  0  0  0  0  0
    7.1761    1.2258    0.0000 C   0  0  3  0  0  0  0  0  0  0  0  0
    6.3671    1.8136    0.0000 C   0  0  3  0  0  0  0  0  0  0  0  0
    5.5580    1.2258    0.0000 C   0  0  3  0  0  0  0  0  0  0  0  0
    6.0010   -1.2253    0.0000 C   0  0  3  0  0  0  0  0  0  0  0  0
    6.0010   -2.2253    0.0000 C   0  0  3  0  0  0  0  0  0  0  0  0
    5.1350   -2.7253    0.0000 C   0  0  3  0  0  0  0  0  0  0  0  0
    4.2690   -2.2253    0.0000 C   0  0  3  0  0  0  0  0  0  0  0  0
    7.8181   -0.0343    0.0000 C   0  0  0  0  0  0  0  0  0  0  0  0
    4.2690   -1.2253    0.0000 C   0  0  3  0  0  0  0  0  0  0  0  0
    4.6070    1.5348    0.0000 C   0  0  0  0  0  0  0  0  0  0  0  0
    3.4030   -0.7253    0.0000 C   0  0  0  0  0  0  0  0  0  0  0  0
    9.5123    0.3258    0.0000 C   0  0  0  0  0  0  0  0  0  0  0  0
   10.2555    0.9950    0.0000 C   0  0  0  0  0  0  0  0  0  0  0  0
   11.2065    0.6860    0.0000 C   0  0  0  0  0  0  0  0  0  0  0  0
   10.0476    1.9731    0.0000 C   0  0  0  0  0  0  0  0  0  0  0  0
   10.7907    2.6423    0.0000 C   0  0  0  0  0  0  0  0  0  0  0  0
   11.9497    1.3551    0.0000 C   0  0  0  0  0  0  0  0  0  0  0  0
   11.7418    2.3332    0.0000 C   0  0  0  0  0  0  0  0  0  0  0  0
    7.6145    0.7874    0.0000 H   0  0  0  0  0  0  0  0  0  0  0  0
    6.9195    2.0951    0.0000 H   0  0  0  0  0  0  0  0  0  0  0  0
    5.1196    0.7874    0.0000 H   0  0  0  0  0  0  0  0  0  0  0  0
    6.0010   -0.6053    0.0000 H   0  0  0  0  0  0  0  0  0  0  0  0
    6.5380   -1.9153    0.0000 H   0  0  0  0  0  0  0  0  0  0  0  0
    5.6720   -3.0353    0.0000 H   0  0  0  0  0  0  0  0  0  0  0  0
    3.7320   -1.9153    0.0000 H   0  0  0  0  0  0  0  0  0  0  0  0
    7.5270   -0.5817    0.0000 H   0  0  0  0  0  0  0  0  0  0  0  0
    8.3067   -0.4160    0.0000 H   0  0  0  0  0  0  0  0  0  0  0  0
    4.2690   -0.6053    0.0000 H   0  0  0  0  0  0  0  0  0  0  0  0
    3.9874    1.5132    0.0000 H   0  0  0  0  0  0  0  0  0  0  0  0
    4.5207    0.9208    0.0000 H   0  0  0  0  0  0  0  0  0  0  0  0
    8.2560    2.1413    0.0000 H   0  0  0  0  0  0  0  0  0  0  0  0
    3.8015   -0.2503    0.0000 H   0  0  0  0  0  0  0  0  0  0  0  0
    3.0044   -0.2503    0.0000 H   0  0  0  0  0  0  0  0  0  0  0  0
    6.9040    3.1236    0.0000 H   0  0  0  0  0  0  0  0  0  0  0  0
    6.8671   -3.3453    0.0000 H   0  0  0  0  0  0  0  0  0  0  0  0
    4.5981   -4.0353    0.0000 H   0  0  0  0  0  0  0  0  0  0  0  0
    3.4030   -3.3453    0.0000 H   0  0  0  0  0  0  0  0  0  0  0  0
    3.8094    2.7045    0.0000 H   0  0  0  0  0  0  0  0  0  0  0  0
    2.0000   -0.9153    0.0000 H   0  0  0  0  0  0  0  0  0  0  0  0
   11.3354    0.0795    0.0000 H   0  0  0  0  0  0  0  0  0  0  0  0
    9.4579    2.1647    0.0000 H   0  0  0  0  0  0  0  0  0  0  0  0
   11.0435    4.0353    0.0000 H   0  0  0  0  0  0  0  0  0  0  0  0
   13.0296    0.4396    0.0000 H   0  0  0  0  0  0  0  0  0  0  0  0
   13.0746    2.8108    0.0000 H   0  0  0  0  0  0  0  0  0  0  0  0
  1 16  1  0  0  0  0
  1 19  1  0  0  0  0
  2 16  1  0  0  0  0
  2 20  1  0  0  0  0
  3 20  1  0  0  0  0
  3 25  1  0  0  0  0
  4 17  1  0  0  0  0
  4 47  1  0  0  0  0
  5 18  1  0  0  0  0
  5 50  1  0  0  0  0
  6 21  1  0  0  0  0
  6 51  1  0  0  0  0
  7 24  1  0  0  0  0
  7 28  1  0  0  0  0
  8 22  1  0  0  0  0
  8 52  1  0  0  0  0
  9 23  1  0  0  0  0
  9 53  1  0  0  0  0
 10 26  1  0  0  0  0
 10 54  1  0  0  0  0
 11 27  1  0  0  0  0
 11 55  1  0  0  0  0
 12 28  2  0  0  0  0
 13 32  1  0  0  0  0
 13 58  1  0  0  0  0
 14 33  1  0  0  0  0
 14 59  1  0  0  0  0
 15 34  1  0  0  0  0
 15 60  1  0  0  0  0
 16 17  1  0  0  0  0
 16 24  1  0  0  0  0
 17 18  1  0  0  0  0
 17 35  1  0  0  0  0
 18 19  1  0  0  0  0
 18 36  1  0  0  0  0
 19 26  1  0  0  0  0
 19 37  1  0  0  0  0
 20 21  1  0  0  0  0
 20 38  1  0  0  0  0
 21 22  1  0  0  0  0
 21 39  1  0  0  0  0
 22 23  1  0  0  0  0
 22 40  1  0  0  0  0
 23 25  1  0  0  0  0
 23 41  1  0  0  0  0
 24 42  1  0  0  0  0
 24 43  1  0  0  0  0
 25 27  1  0  0  0  0
 25 44  1  0  0  0  0
 26 45  1  0  0  0  0
 26 46  1  0  0  0  0
 27 48  1  0  0  0  0
 27 49  1  0  0  0  0
 28 29  1  0  0  0  0
 29 30  2  0  0  0  0
 29 31  1  0  0  0  0
 30 33  1  0  0  0  0
 30 56  1  0  0  0  0
 31 32  2  0  0  0  0
 31 57  1  0  0  0  0
 32 34  1  0  0  0  0
 33 34  2  0  0  0  0
M  END
> <PUBCHEM_COMPOUND_CID>
14055559

> <PUBCHEM_COMPOUND_CANONICALIZED>
1

> <PUBCHEM_CACTVS_COMPLEXITY>
683

> <PUBCHEM_CACTVS_HBOND_ACCEPTOR>
15

> <PUBCHEM_CACTVS_HBOND_DONOR>
10

> <PUBCHEM_CACTVS_ROTATABLE_BOND>
8

> <PUBCHEM_CACTVS_SUBSKEYS>
AAADceB4PAAAAAAAAAAAAAAAAAAAASAAAAA0QAAAAAAAAAABAAAAGgAACAAADBSwmAMwDoAABgCIAiDSCAACAAAkIAAAiAEGiMgZNzKCNRqicQElwBUPuYfK7DzOIAABCAAAQABAAAIQAACAAAAAAAAAAA==

> <PUBCHEM_IUPAC_OPENEYE_NAME>
[3,4-dihydroxy-5-(hydroxymethyl)-2-[3,4,5-trihydroxy-6-(hydroxymethyl)tetrahydropyran-2-yl]oxy-tetrahydrofuran-2-yl]methyl 3,4,5-trihydroxybenzoate

> <PUBCHEM_IUPAC_CAS_NAME>
3,4,5-trihydroxybenzoic acid [3,4-dihydroxy-5-(hydroxymethyl)-2-[[3,4,5-trihydroxy-6-(hydroxymethyl)-2-oxanyl]oxy]-2-oxolanyl]methyl ester

> <PUBCHEM_IUPAC_NAME_MARKUP>
[3,4-dihydroxy-5-(hydroxymethyl)-2-[3,4,5-trihydroxy-6-(hydroxymethyl)oxan-2-yl]oxyoxolan-2-yl]methyl 3,4,5-trihydroxybenzoate

> <PUBCHEM_IUPAC_NAME>
[3,4-dihydroxy-5-(hydroxymethyl)-2-[3,4,5-trihydroxy-6-(hydroxymethyl)oxan-2-yl]oxyoxolan-2-yl]methyl 3,4,5-trihydroxybenzoate

> <PUBCHEM_IUPAC_SYSTEMATIC_NAME>
[5-(hydroxymethyl)-2-[6-(hydroxymethyl)-3,4,5-tris(oxidanyl)oxan-2-yl]oxy-3,4-bis(oxidanyl)oxolan-2-yl]methyl 3,4,5-tris(oxidanyl)benzoate

> <PUBCHEM_IUPAC_TRADITIONAL_NAME>
3,4,5-trihydroxybenzoic acid [3,4-dihydroxy-5-methylol-2-(3,4,5-trihydroxy-6-methylol-tetrahydropyran-2-yl)oxy-tetrahydrofuran-2-yl]methyl ester

> <PUBCHEM_IUPAC_INCHI>
InChI=1S/C19H26O15/c20-3-9-12(25)14(27)15(28)18(32-9)34-19(16(29)13(26)10(4-21)33-19)5-31-17(30)6-1-7(22)11(24)8(23)2-6/h1-2,9-10,12-16,18,20-29H,3-5H2

> <PUBCHEM_IUPAC_INCHIKEY>
XPQHIVBLCNQLEF-UHFFFAOYSA-N

> <PUBCHEM_XLOGP3>
-3.1

> <PUBCHEM_EXACT_MASS>
494.12717012

> <PUBCHEM_MOLECULAR_FORMULA>
C19H26O15

> <PUBCHEM_MOLECULAR_WEIGHT>
494.4

> <PUBCHEM_OPENEYE_CAN_SMILES>
C1=C(C=C(C(=C1O)O)O)C(=O)OCC2(C(C(C(O2)CO)O)O)OC3C(C(C(C(O3)CO)O)O)O

> <PUBCHEM_OPENEYE_ISO_SMILES>
C1=C(C=C(C(=C1O)O)O)C(=O)OCC2(C(C(C(O2)CO)O)O)OC3C(C(C(C(O3)CO)O)O)O

> <PUBCHEM_CACTVS_TPSA>
256

> <PUBCHEM_MONOISOTOPIC_WEIGHT>
494.12717012

> <PUBCHEM_TOTAL_CHARGE>
0

> <PUBCHEM_HEAVY_ATOM_COUNT>
34

> <PUBCHEM_ATOM_DEF_STEREO_COUNT>
0

> <PUBCHEM_ATOM_UDEF_STEREO_COUNT>
9

> <PUBCHEM_BOND_DEF_STEREO_COUNT>
0

> <PUBCHEM_BOND_UDEF_STEREO_COUNT>
0

> <PUBCHEM_ISOTOPIC_ATOM_COUNT>
0

> <PUBCHEM_COMPONENT_COUNT>
1

> <PUBCHEM_CACTVS_TAUTO_COUNT>
-1

> <PUBCHEM_COORDINATE_TYPE>
1
5
255

> <PUBCHEM_BONDANNOTATIONS>
16  24  3
19  26  3
20  2  3
25  27  3
29  30  8
29  31  8
30  33  8
31  32  8
32  34  8
33  34  8
17  4  3
18  5  3
21  6  3
22  8  3
23  9  3

$$$$
