 
  -OEChem-10192104232D

 94 94  0     1  0  0  0  0  0999 V2000
    4.2690   -6.3450    0.0000 O   0  0  0  0  0  0  0  0  0  0  0  0
    6.0010   -6.3450    0.0000 O   0  0  0  0  0  0  0  0  0  0  0  0
    4.2690   -9.3450    0.0000 O   0  0  0  0  0  0  0  0  0  0  0  0
    2.5369   -8.3450    0.0000 O   0  0  0  0  0  0  0  0  0  0  0  0
    6.0010   -8.3450    0.0000 O   0  0  0  0  0  0  0  0  0  0  0  0
    2.5369   -5.3450    0.0000 O   0  0  0  0  0  0  0  0  0  0  0  0
    6.8671   -3.8450    0.0000 O   0  0  0  0  0  0  0  0  0  0  0  0
    8.5991   -4.8450    0.0000 O   0  0  0  0  0  0  0  0  0  0  0  0
    8.5991   -3.8450    0.0000 O   0  0  0  0  0  0  0  0  0  0  0  0
    9.4651   -6.3450    0.0000 O   0  0  0  0  0  0  0  0  0  0  0  0
    4.2690   -8.3450    0.0000 C   0  0  3  0  0  0  0  0  0  0  0  0
    3.4030   -7.8450    0.0000 C   0  0  3  0  0  0  0  0  0  0  0  0
    5.1350   -7.8450    0.0000 C   0  0  3  0  0  0  0  0  0  0  0  0
    3.4030   -6.8450    0.0000 C   0  0  3  0  0  0  0  0  0  0  0  0
    5.1350   -6.8450    0.0000 C   0  0  3  0  0  0  0  0  0  0  0  0
    2.5369   -6.3450    0.0000 C   0  0  0  0  0  0  0  0  0  0  0  0
    6.0010   -5.3450    0.0000 C   0  0  0  0  0  0  0  0  0  0  0  0
    6.8671   -4.8450    0.0000 C   0  0  3  0  0  0  0  0  0  0  0  0
    7.7331   -5.3450    0.0000 C   0  0  0  0  0  0  0  0  0  0  0  0
    8.5991   -0.8450    0.0000 C   0  0  0  0  0  0  0  0  0  0  0  0
    9.4651   -0.3450    0.0000 C   0  0  0  0  0  0  0  0  0  0  0  0
    8.5991   -1.8450    0.0000 C   0  0  0  0  0  0  0  0  0  0  0  0
    9.4651    0.6550    0.0000 C   0  0  0  0  0  0  0  0  0  0  0  0
    7.7331   -2.3450    0.0000 C   0  0  0  0  0  0  0  0  0  0  0  0
   10.3312    1.1550    0.0000 C   0  0  0  0  0  0  0  0  0  0  0  0
    9.4651    6.6550    0.0000 C   0  0  0  0  0  0  0  0  0  0  0  0
    9.4651    5.6550    0.0000 C   0  0  0  0  0  0  0  0  0  0  0  0
    7.7331   -3.3450    0.0000 C   0  0  0  0  0  0  0  0  0  0  0  0
   10.3312    5.1550    0.0000 C   0  0  0  0  0  0  0  0  0  0  0  0
    8.5991    7.1550    0.0000 C   0  0  0  0  0  0  0  0  0  0  0  0
   10.3312    2.1550    0.0000 C   0  0  0  0  0  0  0  0  0  0  0  0
   10.3312    4.1550    0.0000 C   0  0  0  0  0  0  0  0  0  0  0  0
    8.5991    8.1550    0.0000 C   0  0  0  0  0  0  0  0  0  0  0  0
   11.1972    2.6550    0.0000 C   0  0  0  0  0  0  0  0  0  0  0  0
   11.1972    3.6550    0.0000 C   0  0  0  0  0  0  0  0  0  0  0  0
    7.7331    8.6550    0.0000 C   0  0  0  0  0  0  0  0  0  0  0  0
    9.4651   -5.3450    0.0000 C   0  0  0  0  0  0  0  0  0  0  0  0
    7.7331    9.6550    0.0000 C   0  0  0  0  0  0  0  0  0  0  0  0
   10.3312   -4.8450    0.0000 C   0  0  0  0  0  0  0  0  0  0  0  0
   11.1972   -5.3450    0.0000 C   0  0  0  0  0  0  0  0  0  0  0  0
    4.8059   -8.6550    0.0000 H   0  0  0  0  0  0  0  0  0  0  0  0
    2.8660   -7.5350    0.0000 H   0  0  0  0  0  0  0  0  0  0  0  0
    5.6720   -7.5350    0.0000 H   0  0  0  0  0  0  0  0  0  0  0  0
    3.4030   -6.2250    0.0000 H   0  0  0  0  0  0  0  0  0  0  0  0
    5.1350   -6.2250    0.0000 H   0  0  0  0  0  0  0  0  0  0  0  0
    1.9264   -6.2373    0.0000 H   0  0  0  0  0  0  0  0  0  0  0  0
    2.3249   -6.9276    0.0000 H   0  0  0  0  0  0  0  0  0  0  0  0
    3.7320   -9.6550    0.0000 H   0  0  0  0  0  0  0  0  0  0  0  0
    2.0000   -8.0350    0.0000 H   0  0  0  0  0  0  0  0  0  0  0  0
    6.5380   -8.0350    0.0000 H   0  0  0  0  0  0  0  0  0  0  0  0
    5.7890   -4.7624    0.0000 H   0  0  0  0  0  0  0  0  0  0  0  0
    5.3905   -5.4527    0.0000 H   0  0  0  0  0  0  0  0  0  0  0  0
    7.4040   -4.5350    0.0000 H   0  0  0  0  0  0  0  0  0  0  0  0
    2.0000   -5.0350    0.0000 H   0  0  0  0  0  0  0  0  0  0  0  0
    7.3346   -5.8200    0.0000 H   0  0  0  0  0  0  0  0  0  0  0  0
    8.1316   -5.8200    0.0000 H   0  0  0  0  0  0  0  0  0  0  0  0
    8.3871   -0.2624    0.0000 H   0  0  0  0  0  0  0  0  0  0  0  0
    7.9885   -0.9527    0.0000 H   0  0  0  0  0  0  0  0  0  0  0  0
    9.6772   -0.9276    0.0000 H   0  0  0  0  0  0  0  0  0  0  0  0
   10.0757   -0.2373    0.0000 H   0  0  0  0  0  0  0  0  0  0  0  0
    8.8112   -2.4276    0.0000 H   0  0  0  0  0  0  0  0  0  0  0  0
    9.2097   -1.7373    0.0000 H   0  0  0  0  0  0  0  0  0  0  0  0
    9.2531    1.2376    0.0000 H   0  0  0  0  0  0  0  0  0  0  0  0
    8.8546    0.5473    0.0000 H   0  0  0  0  0  0  0  0  0  0  0  0
    7.5210   -1.7624    0.0000 H   0  0  0  0  0  0  0  0  0  0  0  0
    7.1225   -2.4527    0.0000 H   0  0  0  0  0  0  0  0  0  0  0  0
   10.5432    0.5724    0.0000 H   0  0  0  0  0  0  0  0  0  0  0  0
   10.9417    1.2627    0.0000 H   0  0  0  0  0  0  0  0  0  0  0  0
   10.0757    6.5473    0.0000 H   0  0  0  0  0  0  0  0  0  0  0  0
    9.6772    7.2376    0.0000 H   0  0  0  0  0  0  0  0  0  0  0  0
    8.8546    5.7627    0.0000 H   0  0  0  0  0  0  0  0  0  0  0  0
    9.2531    5.0724    0.0000 H   0  0  0  0  0  0  0  0  0  0  0  0
    7.9885    7.2627    0.0000 H   0  0  0  0  0  0  0  0  0  0  0  0
    8.3871    6.5724    0.0000 H   0  0  0  0  0  0  0  0  0  0  0  0
   10.9417    5.0473    0.0000 H   0  0  0  0  0  0  0  0  0  0  0  0
   10.5432    5.7376    0.0000 H   0  0  0  0  0  0  0  0  0  0  0  0
   10.1191    2.7376    0.0000 H   0  0  0  0  0  0  0  0  0  0  0  0
    9.7206    2.0473    0.0000 H   0  0  0  0  0  0  0  0  0  0  0  0
    9.7206    4.2627    0.0000 H   0  0  0  0  0  0  0  0  0  0  0  0
   10.1191    3.5724    0.0000 H   0  0  0  0  0  0  0  0  0  0  0  0
    9.2097    8.0473    0.0000 H   0  0  0  0  0  0  0  0  0  0  0  0
    8.8112    8.7376    0.0000 H   0  0  0  0  0  0  0  0  0  0  0  0
   11.7341    2.3450    0.0000 H   0  0  0  0  0  0  0  0  0  0  0  0
   11.7341    3.9650    0.0000 H   0  0  0  0  0  0  0  0  0  0  0  0
    7.1225    8.7627    0.0000 H   0  0  0  0  0  0  0  0  0  0  0  0
    7.5210    8.0724    0.0000 H   0  0  0  0  0  0  0  0  0  0  0  0
    8.3531    9.6550    0.0000 H   0  0  0  0  0  0  0  0  0  0  0  0
    7.7331   10.2750    0.0000 H   0  0  0  0  0  0  0  0  0  0  0  0
    7.1131    9.6550    0.0000 H   0  0  0  0  0  0  0  0  0  0  0  0
   10.7297   -4.3700    0.0000 H   0  0  0  0  0  0  0  0  0  0  0  0
    9.9326   -4.3700    0.0000 H   0  0  0  0  0  0  0  0  0  0  0  0
   10.8872   -5.8819    0.0000 H   0  0  0  0  0  0  0  0  0  0  0  0
   11.7341   -5.6550    0.0000 H   0  0  0  0  0  0  0  0  0  0  0  0
   11.5072   -4.8081    0.0000 H   0  0  0  0  0  0  0  0  0  0  0  0
  1 14  1  0  0  0  0
  1 15  1  0  0  0  0
  2 15  1  0  0  0  0
  2 17  1  0  0  0  0
  3 11  1  0  0  0  0
  3 48  1  0  0  0  0
  4 12  1  0  0  0  0
  4 49  1  0  0  0  0
  5 13  1  0  0  0  0
  5 50  1  0  0  0  0
  6 16  1  0  0  0  0
  6 54  1  0  0  0  0
  7 18  1  0  0  0  0
  7 28  1  0  0  0  0
  8 19  1  0  0  0  0
  8 37  1  0  0  0  0
  9 28  2  0  0  0  0
 10 37  2  0  0  0  0
 11 12  1  0  0  0  0
 11 13  1  0  0  0  0
 11 41  1  0  0  0  0
 12 14  1  0  0  0  0
 12 42  1  0  0  0  0
 13 15  1  0  0  0  0
 13 43  1  0  0  0  0
 14 16  1  0  0  0  0
 14 44  1  0  0  0  0
 15 45  1  0  0  0  0
 16 46  1  0  0  0  0
 16 47  1  0  0  0  0
 17 18  1  0  0  0  0
 17 51  1  0  0  0  0
 17 52  1  0  0  0  0
 18 19  1  0  0  0  0
 18 53  1  0  0  0  0
 19 55  1  0  0  0  0
 19 56  1  0  0  0  0
 20 21  1  0  0  0  0
 20 22  1  0  0  0  0
 20 57  1  0  0  0  0
 20 58  1  0  0  0  0
 21 23  1  0  0  0  0
 21 59  1  0  0  0  0
 21 60  1  0  0  0  0
 22 24  1  0  0  0  0
 22 61  1  0  0  0  0
 22 62  1  0  0  0  0
 23 25  1  0  0  0  0
 23 63  1  0  0  0  0
 23 64  1  0  0  0  0
 24 28  1  0  0  0  0
 24 65  1  0  0  0  0
 24 66  1  0  0  0  0
 25 31  1  0  0  0  0
 25 67  1  0  0  0  0
 25 68  1  0  0  0  0
 26 27  1  0  0  0  0
 26 30  1  0  0  0  0
 26 69  1  0  0  0  0
 26 70  1  0  0  0  0
 27 29  1  0  0  0  0
 27 71  1  0  0  0  0
 27 72  1  0  0  0  0
 29 32  1  0  0  0  0
 29 75  1  0  0  0  0
 29 76  1  0  0  0  0
 30 33  1  0  0  0  0
 30 73  1  0  0  0  0
 30 74  1  0  0  0  0
 31 34  1  0  0  0  0
 31 77  1  0  0  0  0
 31 78  1  0  0  0  0
 32 35  1  0  0  0  0
 32 79  1  0  0  0  0
 32 80  1  0  0  0  0
 33 36  1  0  0  0  0
 33 81  1  0  0  0  0
 33 82  1  0  0  0  0
 34 35  2  0  0  0  0
 34 83  1  0  0  0  0
 35 84  1  0  0  0  0
 36 38  1  0  0  0  0
 36 85  1  0  0  0  0
 36 86  1  0  0  0  0
 37 39  1  0  0  0  0
 38 87  1  0  0  0  0
 38 88  1  0  0  0  0
 38 89  1  0  0  0  0
 39 40  1  0  0  0  0
 39 90  1  0  0  0  0
 39 91  1  0  0  0  0
 40 92  1  0  0  0  0
 40 93  1  0  0  0  0
 40 94  1  0  0  0  0
M  END
> <PUBCHEM_COMPOUND_CID>
138213632

> <PUBCHEM_COMPOUND_CANONICALIZED>
1

> <PUBCHEM_CACTVS_COMPLEXITY>
685

> <PUBCHEM_CACTVS_HBOND_ACCEPTOR>
10

> <PUBCHEM_CACTVS_HBOND_DONOR>
4

> <PUBCHEM_CACTVS_ROTATABLE_BOND>
25

> <PUBCHEM_CACTVS_SUBSKEYS>
AAADcfB4PAAAAAAAAAAAAAAAAAAAAAAAAAAkAAAAAAAAAAAAAAAAGgAACAAACBSwgAMCCAAABgCIACDSCAAAAAAgAAAICAEAAAgREBIAAQAiQAAFgAAPAAPI6KyAAAAAAAAAAAAAAAAAAAAAAAAAAAAAAA==

> <PUBCHEM_IUPAC_OPENEYE_NAME>
[1-(propanoyloxymethyl)-2-[3,4,5-trihydroxy-6-(hydroxymethyl)tetrahydropyran-2-yl]oxy-ethyl] (Z)-octadec-9-enoate

> <PUBCHEM_IUPAC_CAS_NAME>
(Z)-9-octadecenoic acid [1-(1-oxopropoxy)-3-[[3,4,5-trihydroxy-6-(hydroxymethyl)-2-oxanyl]oxy]propan-2-yl] ester

> <PUBCHEM_IUPAC_NAME_MARKUP>
[1-propanoyloxy-3-[3,4,5-trihydroxy-6-(hydroxymethyl)oxan-2-yl]oxypropan-2-yl] (<I>Z</I>)-octadec-9-enoate

> <PUBCHEM_IUPAC_NAME>
[1-propanoyloxy-3-[3,4,5-trihydroxy-6-(hydroxymethyl)oxan-2-yl]oxypropan-2-yl] (Z)-octadec-9-enoate

> <PUBCHEM_IUPAC_SYSTEMATIC_NAME>
[1-[6-(hydroxymethyl)-3,4,5-tris(oxidanyl)oxan-2-yl]oxy-3-propanoyloxy-propan-2-yl] (Z)-octadec-9-enoate

> <PUBCHEM_IUPAC_TRADITIONAL_NAME>
(Z)-octadec-9-enoic acid [1-(propionyloxymethyl)-2-(3,4,5-trihydroxy-6-methylol-tetrahydropyran-2-yl)oxy-ethyl] ester

> <PUBCHEM_IUPAC_INCHI>
InChI=1S/C30H54O10/c1-3-5-6-7-8-9-10-11-12-13-14-15-16-17-18-19-26(33)39-23(21-37-25(32)4-2)22-38-30-29(36)28(35)27(34)24(20-31)40-30/h11-12,23-24,27-31,34-36H,3-10,13-22H2,1-2H3/b12-11-

> <PUBCHEM_IUPAC_INCHIKEY>
MRKYJNVZDSMRGZ-QXMHVHEDSA-N

> <PUBCHEM_XLOGP3_AA>
5.7

> <PUBCHEM_EXACT_MASS>
574.37169792

> <PUBCHEM_MOLECULAR_FORMULA>
C30H54O10

> <PUBCHEM_MOLECULAR_WEIGHT>
574.7

> <PUBCHEM_OPENEYE_CAN_SMILES>
CCCCCCCCC=CCCCCCCCC(=O)OC(COC1C(C(C(C(O1)CO)O)O)O)COC(=O)CC

> <PUBCHEM_OPENEYE_ISO_SMILES>
CCCCCCCC/C=C\CCCCCCCC(=O)OC(COC1C(C(C(C(O1)CO)O)O)O)COC(=O)CC

> <PUBCHEM_CACTVS_TPSA>
152

> <PUBCHEM_MONOISOTOPIC_WEIGHT>
574.37169792

> <PUBCHEM_TOTAL_CHARGE>
0

> <PUBCHEM_HEAVY_ATOM_COUNT>
40

> <PUBCHEM_ATOM_DEF_STEREO_COUNT>
0

> <PUBCHEM_ATOM_UDEF_STEREO_COUNT>
6

> <PUBCHEM_BOND_DEF_STEREO_COUNT>
1

> <PUBCHEM_BOND_UDEF_STEREO_COUNT>
0

> <PUBCHEM_ISOTOPIC_ATOM_COUNT>
0

> <PUBCHEM_COMPONENT_COUNT>
1

> <PUBCHEM_CACTVS_TAUTO_COUNT>
-1

> <PUBCHEM_COORDINATE_TYPE>
1
5
255

> <PUBCHEM_BONDANNOTATIONS>
14  16  3
18  17  3
15  2  3
11  3  3
12  4  3
13  5  3

$$$$
