 
  -OEChem-10192103582D

 75 79  0     1  0  0  0  0  0999 V2000
    7.6853   -1.0942    0.0000 P   0  0  0  0  0  0  0  0  0  0  0  0
    5.1537   -2.8630    0.0000 O   0  0  0  0  0  0  0  0  0  0  0  0
    7.2254    2.3885    0.0000 O   0  0  0  0  0  0  0  0  0  0  0  0
    6.8762   -1.6820    0.0000 O   0  0  0  0  0  0  0  0  0  0  0  0
    7.0975   -0.2852    0.0000 O   0  0  0  0  0  0  0  0  0  0  0  0
    8.4943   -0.5064    0.0000 O   0  0  0  0  0  0  0  0  0  0  0  0
    9.2676   -1.7987    0.0000 O   0  0  0  0  0  0  0  0  0  0  0  0
    2.2463   -3.5878    0.0000 O   0  0  0  0  0  0  0  0  0  0  0  0
    8.1485    3.9762    0.0000 O   0  0  0  0  0  0  0  0  0  0  0  0
    2.9666   -6.9762    0.0000 O   0  0  0  0  0  0  0  0  0  0  0  0
    6.4164    6.9762    0.0000 O   0  0  0  0  0  0  0  0  0  0  0  0
    3.8936   -4.1231    0.0000 N   0  0  0  0  0  0  0  0  0  0  0  0
    6.4164    3.9762    0.0000 N   0  0  0  0  0  0  0  0  0  0  0  0
    2.6064   -5.2820    0.0000 N   0  0  0  0  0  0  0  0  0  0  0  0
    7.2825    5.4762    0.0000 N   0  0  0  0  0  0  0  0  0  0  0  0
    5.1537   -1.8630    0.0000 C   0  0  1  0  0  0  0  0  0  0  0  0
    6.9164    1.4374    0.0000 C   0  0  1  0  0  0  0  0  0  0  0  0
    4.2026   -1.5540    0.0000 C   0  0  0  0  0  0  0  0  0  0  0  0
    5.9164    1.4374    0.0000 C   0  0  0  0  0  0  0  0  0  0  0  0
    4.2026   -3.1720    0.0000 C   0  0  1  0  0  0  0  0  0  0  0  0
    3.6148   -2.3630    0.0000 C   0  0  0  0  0  0  0  0  0  0  0  0
    6.4164    2.9762    0.0000 C   0  0  1  0  0  0  0  0  0  0  0  0
    5.6074    2.3885    0.0000 C   0  0  0  0  0  0  0  0  0  0  0  0
    5.9627   -1.2752    0.0000 C   0  0  0  0  0  0  0  0  0  0  0  0
    7.5042    0.6284    0.0000 C   0  0  0  0  0  0  0  0  0  0  0  0
    8.2730   -1.9032    0.0000 C   0  0  3  0  0  0  0  0  0  0  0  0
    4.5628   -4.8662    0.0000 C   0  0  0  0  0  0  0  0  0  0  0  0
    5.5504    4.4762    0.0000 C   0  0  0  0  0  0  0  0  0  0  0  0
    2.9155   -4.3310    0.0000 C   0  0  0  0  0  0  0  0  0  0  0  0
    7.2825    4.4762    0.0000 C   0  0  0  0  0  0  0  0  0  0  0  0
    7.8663   -2.8167    0.0000 C   0  0  0  0  0  0  0  0  0  0  0  0
    4.2537   -5.8173    0.0000 C   0  0  0  0  0  0  0  0  0  0  0  0
    5.5504    5.4762    0.0000 C   0  0  0  0  0  0  0  0  0  0  0  0
    3.2756   -6.0252    0.0000 C   0  0  0  0  0  0  0  0  0  0  0  0
    6.4164    5.9762    0.0000 C   0  0  0  0  0  0  0  0  0  0  0  0
    4.9229   -6.5604    0.0000 C   0  0  0  0  0  0  0  0  0  0  0  0
    4.6844    5.9762    0.0000 C   0  0  0  0  0  0  0  0  0  0  0  0
    8.4541   -3.6258    0.0000 C   0  0  0  0  0  0  0  0  0  0  0  0
    6.8718   -2.9213    0.0000 C   0  0  0  0  0  0  0  0  0  0  0  0
    8.0474   -4.5393    0.0000 C   0  0  0  0  0  0  0  0  0  0  0  0
    6.4651   -3.8348    0.0000 C   0  0  0  0  0  0  0  0  0  0  0  0
    7.0528   -4.6438    0.0000 C   0  0  0  0  0  0  0  0  0  0  0  0
    5.7061   -2.1445    0.0000 H   0  0  0  0  0  0  0  0  0  0  0  0
    7.5288    1.5344    0.0000 H   0  0  0  0  0  0  0  0  0  0  0  0
    4.4548   -0.9876    0.0000 H   0  0  0  0  0  0  0  0  0  0  0  0
    3.6657   -1.2440    0.0000 H   0  0  0  0  0  0  0  0  0  0  0  0
    5.3100    1.3085    0.0000 H   0  0  0  0  0  0  0  0  0  0  0  0
    5.9812    0.8208    0.0000 H   0  0  0  0  0  0  0  0  0  0  0  0
    3.5903   -3.2690    0.0000 H   0  0  0  0  0  0  0  0  0  0  0  0
    3.1541   -1.9482    0.0000 H   0  0  0  0  0  0  0  0  0  0  0  0
    3.1541   -2.7779    0.0000 H   0  0  0  0  0  0  0  0  0  0  0  0
    6.9689    3.2577    0.0000 H   0  0  0  0  0  0  0  0  0  0  0  0
    5.2974    2.9254    0.0000 H   0  0  0  0  0  0  0  0  0  0  0  0
    5.0410    2.1363    0.0000 H   0  0  0  0  0  0  0  0  0  0  0  0
    6.3094   -0.7612    0.0000 H   0  0  0  0  0  0  0  0  0  0  0  0
    5.5167   -0.8445    0.0000 H   0  0  0  0  0  0  0  0  0  0  0  0
    8.0182    0.2817    0.0000 H   0  0  0  0  0  0  0  0  0  0  0  0
    7.9349    1.0744    0.0000 H   0  0  0  0  0  0  0  0  0  0  0  0
    8.5252   -1.3368    0.0000 H   0  0  0  0  0  0  0  0  0  0  0  0
    5.1692   -4.7373    0.0000 H   0  0  0  0  0  0  0  0  0  0  0  0
    5.0135    4.1662    0.0000 H   0  0  0  0  0  0  0  0  0  0  0  0
    2.0000   -5.4110    0.0000 H   0  0  0  0  0  0  0  0  0  0  0  0
    7.8194    5.7862    0.0000 H   0  0  0  0  0  0  0  0  0  0  0  0
    9.6320   -2.3002    0.0000 H   0  0  0  0  0  0  0  0  0  0  0  0
    4.4621   -6.9753    0.0000 H   0  0  0  0  0  0  0  0  0  0  0  0
    5.3377   -7.0212    0.0000 H   0  0  0  0  0  0  0  0  0  0  0  0
    5.3836   -6.1456    0.0000 H   0  0  0  0  0  0  0  0  0  0  0  0
    4.9944    6.5132    0.0000 H   0  0  0  0  0  0  0  0  0  0  0  0
    4.1474    6.2862    0.0000 H   0  0  0  0  0  0  0  0  0  0  0  0
    4.3744    5.4393    0.0000 H   0  0  0  0  0  0  0  0  0  0  0  0
    9.0707   -3.5609    0.0000 H   0  0  0  0  0  0  0  0  0  0  0  0
    6.5074   -2.4197    0.0000 H   0  0  0  0  0  0  0  0  0  0  0  0
    8.4118   -5.0409    0.0000 H   0  0  0  0  0  0  0  0  0  0  0  0
    5.8485   -3.8996    0.0000 H   0  0  0  0  0  0  0  0  0  0  0  0
    6.8007   -5.2102    0.0000 H   0  0  0  0  0  0  0  0  0  0  0  0
  1  4  1  0  0  0  0
  1  5  1  0  0  0  0
  1  6  2  0  0  0  0
  1 26  1  0  0  0  0
  2 16  1  0  0  0  0
  2 20  1  0  0  0  0
  3 17  1  0  0  0  0
  3 22  1  0  0  0  0
  4 24  1  0  0  0  0
  5 25  1  0  0  0  0
  7 26  1  0  0  0  0
  7 64  1  0  0  0  0
  8 29  2  0  0  0  0
  9 30  2  0  0  0  0
 10 34  2  0  0  0  0
 11 35  2  0  0  0  0
 20 12  1  1  0  0  0
 12 27  1  0  0  0  0
 12 29  1  0  0  0  0
 22 13  1  6  0  0  0
 13 28  1  0  0  0  0
 13 30  1  0  0  0  0
 14 29  1  0  0  0  0
 14 34  1  0  0  0  0
 14 62  1  0  0  0  0
 15 30  1  0  0  0  0
 15 35  1  0  0  0  0
 15 63  1  0  0  0  0
 16 18  1  0  0  0  0
 16 24  1  1  0  0  0
 16 43  1  0  0  0  0
 17 19  1  0  0  0  0
 17 25  1  6  0  0  0
 17 44  1  0  0  0  0
 18 21  1  0  0  0  0
 18 45  1  0  0  0  0
 18 46  1  0  0  0  0
 19 23  1  0  0  0  0
 19 47  1  0  0  0  0
 19 48  1  0  0  0  0
 20 21  1  0  0  0  0
 20 49  1  0  0  0  0
 21 50  1  0  0  0  0
 21 51  1  0  0  0  0
 22 23  1  0  0  0  0
 22 52  1  0  0  0  0
 23 53  1  0  0  0  0
 23 54  1  0  0  0  0
 24 55  1  0  0  0  0
 24 56  1  0  0  0  0
 25 57  1  0  0  0  0
 25 58  1  0  0  0  0
 26 31  1  0  0  0  0
 26 59  1  0  0  0  0
 27 32  2  0  0  0  0
 27 60  1  0  0  0  0
 28 33  2  0  0  0  0
 28 61  1  0  0  0  0
 31 38  2  0  0  0  0
 31 39  1  0  0  0  0
 32 34  1  0  0  0  0
 32 36  1  0  0  0  0
 33 35  1  0  0  0  0
 33 37  1  0  0  0  0
 36 65  1  0  0  0  0
 36 66  1  0  0  0  0
 36 67  1  0  0  0  0
 37 68  1  0  0  0  0
 37 69  1  0  0  0  0
 37 70  1  0  0  0  0
 38 40  1  0  0  0  0
 38 71  1  0  0  0  0
 39 41  2  0  0  0  0
 39 72  1  0  0  0  0
 40 42  2  0  0  0  0
 40 73  1  0  0  0  0
 41 42  1  0  0  0  0
 41 74  1  0  0  0  0
 42 75  1  0  0  0  0
M  END
> <PUBCHEM_COMPOUND_CID>
10371444

> <PUBCHEM_COMPOUND_CANONICALIZED>
1

> <PUBCHEM_CACTVS_COMPLEXITY>
1130

> <PUBCHEM_CACTVS_HBOND_ACCEPTOR>
10

> <PUBCHEM_CACTVS_HBOND_DONOR>
3

> <PUBCHEM_CACTVS_ROTATABLE_BOND>
10

> <PUBCHEM_CACTVS_SUBSKEYS>
AAADcfB7vAIAAAAAAAAAAAAAAAAAASJAAAAwQIAAAAAAAAABAAAAHggQCCAADBTpmAYzAIPABxCIQiFWUICCAAAgAAAIiAEICMiJNiKAkRCOcAAsxyMKmMew8CIOAAAAAAAAAAAAAAAAAAAAAAAAAAAAAA==

> <PUBCHEM_IUPAC_OPENEYE_NAME>
1-[(2R,5S)-5-[[[hydroxy(phenyl)methyl]-[[(2S,5R)-5-(5-methyl-2,4-dioxo-pyrimidin-1-yl)tetrahydrofuran-2-yl]methoxy]phosphoryl]oxymethyl]tetrahydrofuran-2-yl]-5-methyl-pyrimidine-2,4-dione

> <PUBCHEM_IUPAC_CAS_NAME>
1-[(2R,5S)-5-[[[hydroxy(phenyl)methyl]-[[(2S,5R)-5-(5-methyl-2,4-dioxo-1-pyrimidinyl)-2-oxolanyl]methoxy]phosphoryl]oxymethyl]-2-oxolanyl]-5-methylpyrimidine-2,4-dione

> <PUBCHEM_IUPAC_NAME_MARKUP>
1-[(2<I>R</I>,5<I>S</I>)-5-[[[hydroxy(phenyl)methyl]-[[(2<I>S</I>,5<I>R</I>)-5-(5-methyl-2,4-dioxopyrimidin-1-yl)oxolan-2-yl]methoxy]phosphoryl]oxymethyl]oxolan-2-yl]-5-methylpyrimidine-2,4-dione

> <PUBCHEM_IUPAC_NAME>
1-[(2R,5S)-5-[[[hydroxy(phenyl)methyl]-[[(2S,5R)-5-(5-methyl-2,4-dioxopyrimidin-1-yl)oxolan-2-yl]methoxy]phosphoryl]oxymethyl]oxolan-2-yl]-5-methylpyrimidine-2,4-dione

> <PUBCHEM_IUPAC_SYSTEMATIC_NAME>
5-methyl-1-[(2R,5S)-5-[[[(2S,5R)-5-[5-methyl-2,4-bis(oxidanylidene)pyrimidin-1-yl]oxolan-2-yl]methoxy-[oxidanyl(phenyl)methyl]phosphoryl]oxymethyl]oxolan-2-yl]pyrimidine-2,4-dione

> <PUBCHEM_IUPAC_TRADITIONAL_NAME>
1-[(2R,5S)-5-[[[(2S,5R)-5-(2,4-diketo-5-methyl-pyrimidin-1-yl)tetrahydrofuran-2-yl]methoxy-[hydroxy(phenyl)methyl]phosphoryl]oxymethyl]tetrahydrofuran-2-yl]-5-methyl-pyrimidine-2,4-quinone

> <PUBCHEM_IUPAC_INCHI>
InChI=1S/C27H33N4O10P/c1-16-12-30(26(35)28-23(16)32)21-10-8-19(40-21)14-38-42(37,25(34)18-6-4-3-5-7-18)39-15-20-9-11-22(41-20)31-13-17(2)24(33)29-27(31)36/h3-7,12-13,19-22,25,34H,8-11,14-15H2,1-2H3,(H,28,32,35)(H,29,33,36)/t19-,20-,21+,22+,25?/m0/s1

> <PUBCHEM_IUPAC_INCHIKEY>
WWEKXVJKGVVCCR-JMVBNQIFSA-N

> <PUBCHEM_XLOGP3_AA>
0.3

> <PUBCHEM_EXACT_MASS>
604.19343026

> <PUBCHEM_MOLECULAR_FORMULA>
C27H33N4O10P

> <PUBCHEM_MOLECULAR_WEIGHT>
604.5

> <PUBCHEM_OPENEYE_CAN_SMILES>
CC1=CN(C(=O)NC1=O)C2CCC(O2)COP(=O)(C(C3=CC=CC=C3)O)OCC4CCC(O4)N5C=C(C(=O)NC5=O)C

> <PUBCHEM_OPENEYE_ISO_SMILES>
CC1=CN(C(=O)NC1=O)[C@H]2CC[C@H](O2)COP(=O)(C(C3=CC=CC=C3)O)OC[C@@H]4CC[C@@H](O4)N5C=C(C(=O)NC5=O)C

> <PUBCHEM_CACTVS_TPSA>
173

> <PUBCHEM_MONOISOTOPIC_WEIGHT>
604.19343026

> <PUBCHEM_TOTAL_CHARGE>
0

> <PUBCHEM_HEAVY_ATOM_COUNT>
42

> <PUBCHEM_ATOM_DEF_STEREO_COUNT>
4

> <PUBCHEM_ATOM_UDEF_STEREO_COUNT>
1

> <PUBCHEM_BOND_DEF_STEREO_COUNT>
0

> <PUBCHEM_BOND_UDEF_STEREO_COUNT>
0

> <PUBCHEM_ISOTOPIC_ATOM_COUNT>
0

> <PUBCHEM_COMPONENT_COUNT>
1

> <PUBCHEM_CACTVS_TAUTO_COUNT>
-1

> <PUBCHEM_COORDINATE_TYPE>
1
5
255

> <PUBCHEM_BONDANNOTATIONS>
20  12  5
12  27  8
12  29  8
22  13  6
13  28  8
13  30  8
14  29  8
14  34  8
15  30  8
15  35  8
16  24  5
17  25  6
27  32  8
28  33  8
31  38  8
31  39  8
32  34  8
33  35  8
38  40  8
39  41  8
40  42  8
41  42  8
26  7  3

$$$$
