 
  -OEChem-10192104212D

 59 63  0     1  0  0  0  0  0999 V2000
    7.2786    0.6030    0.0000 P   0  0  3  0  0  0  0  0  0  0  0  0
    7.6479    2.4135    0.0000 P   0  0  3  0  0  0  0  0  0  0  0  0
    5.9320   -2.5081    0.0000 O   0  0  0  0  0  0  0  0  0  0  0  0
    5.2871    2.3379    0.0000 O   0  0  0  0  0  0  0  0  0  0  0  0
    5.8694   -4.1369    0.0000 O   0  0  0  0  0  0  0  0  0  0  0  0
    7.5358   -2.7914    0.0000 O   0  0  0  0  0  0  0  0  0  0  0  0
    3.6521    2.1605    0.0000 O   0  0  0  0  0  0  0  0  0  0  0  0
    4.8406    3.9207    0.0000 O   0  0  0  0  0  0  0  0  0  0  0  0
    6.7191   -0.2258    0.0000 O   0  0  0  0  0  0  0  0  0  0  0  0
    7.4575    3.3952    0.0000 O   0  0  0  0  0  0  0  0  0  0  0  0
    7.0883    1.5847    0.0000 O   0  0  0  0  0  0  0  0  0  0  0  0
    8.2768    0.6636    0.0000 O   0  0  0  0  0  0  0  0  0  0  0  0
    8.4820    2.9651    0.0000 O   0  0  0  0  0  0  0  0  0  0  0  0
    7.9667   -0.1227    0.0000 O   0  0  0  0  0  0  0  0  0  0  0  0
    8.5426    1.9669    0.0000 O   0  0  0  0  0  0  0  0  0  0  0  0
    4.1087   -2.0694    0.0000 N   0  0  0  0  0  0  0  0  0  0  0  0
    4.3179    0.9024    0.0000 N   0  3  0  0  0  0  0  0  0  0  0  0
    5.1840   -0.5976    0.0000 N   0  0  0  0  0  0  0  0  0  0  0  0
    2.7149   -1.2646    0.0000 N   0  0  0  0  0  0  0  0  0  0  0  0
    2.5859    0.9024    0.0000 N   0  0  0  0  0  0  0  0  0  0  0  0
    2.6200   -3.0385    0.0000 N   0  0  0  0  0  0  0  0  0  0  0  0
    4.9375   -2.6290    0.0000 C   0  0  1  0  0  0  0  0  0  0  0  0
    5.7976   -3.1395    0.0000 C   0  0  1  0  0  0  0  0  0  0  0  0
    6.5759   -2.5111    0.0000 C   0  0  1  0  0  0  0  0  0  0  0  0
    5.2169    1.3404    0.0000 C   0  0  1  0  0  0  0  0  0  0  0  0
    6.2580   -1.5627    0.0000 C   0  0  1  0  0  0  0  0  0  0  0  0
    4.6521    2.1641    0.0000 C   0  0  1  0  0  0  0  0  0  0  0  0
    5.2110    2.9919    0.0000 C   0  0  1  0  0  0  0  0  0  0  0  0
    6.1861    2.7759    0.0000 C   0  0  1  0  0  0  0  0  0  0  0  0
    4.3179   -1.0976    0.0000 C   0  0  0  0  0  0  0  0  0  0  0  0
    7.1570   -1.1248    0.0000 C   0  0  0  0  0  0  0  0  0  0  0  0
    6.5122    3.7212    0.0000 C   0  0  0  0  0  0  0  0  0  0  0  0
    3.4519   -0.5976    0.0000 C   0  0  0  0  0  0  0  0  0  0  0  0
    3.4519    0.4024    0.0000 C   0  0  0  0  0  0  0  0  0  0  0  0
    3.1200   -2.1724    0.0000 C   0  0  0  0  0  0  0  0  0  0  0  0
    5.1840    0.4024    0.0000 C   0  0  0  0  0  0  0  0  0  0  0  0
    4.4826   -3.3470    0.0000 H   0  0  0  0  0  0  0  0  0  0  0  0
    6.3663   -3.3865    0.0000 H   0  0  0  0  0  0  0  0  0  0  0  0
    7.0056   -2.0642    0.0000 H   0  0  0  0  0  0  0  0  0  0  0  0
    5.9214    0.8647    0.0000 H   0  0  0  0  0  0  0  0  0  0  0  0
    5.9879   -0.7568    0.0000 H   0  0  0  0  0  0  0  0  0  0  0  0
    4.3602    2.7111    0.0000 H   0  0  0  0  0  0  0  0  0  0  0  0
    4.5946    3.0582    0.0000 H   0  0  0  0  0  0  0  0  0  0  0  0
    5.7709    3.5176    0.0000 H   0  0  0  0  0  0  0  0  0  0  0  0
    7.4286   -1.6821    0.0000 H   0  0  0  0  0  0  0  0  0  0  0  0
    7.7144   -0.8532    0.0000 H   0  0  0  0  0  0  0  0  0  0  0  0
    6.7143    4.3074    0.0000 H   0  0  0  0  0  0  0  0  0  0  0  0
    5.9260    3.9234    0.0000 H   0  0  0  0  0  0  0  0  0  0  0  0
    5.7209    0.7124    0.0000 H   0  0  0  0  0  0  0  0  0  0  0  0
    6.4272   -4.4076    0.0000 H   0  0  0  0  0  0  0  0  0  0  0  0
    7.6829   -3.3937    0.0000 H   0  0  0  0  0  0  0  0  0  0  0  0
    3.3402    2.6964    0.0000 H   0  0  0  0  0  0  0  0  0  0  0  0
    5.2245    4.4076    0.0000 H   0  0  0  0  0  0  0  0  0  0  0  0
    2.0489    0.5924    0.0000 H   0  0  0  0  0  0  0  0  0  0  0  0
    2.5859    1.5224    0.0000 H   0  0  0  0  0  0  0  0  0  0  0  0
    2.0000   -3.0385    0.0000 H   0  0  0  0  0  0  0  0  0  0  0  0
    2.9300   -3.5754    0.0000 H   0  0  0  0  0  0  0  0  0  0  0  0
    8.5537    1.2183    0.0000 H   0  0  0  0  0  0  0  0  0  0  0  0
    8.4445    3.5839    0.0000 H   0  0  0  0  0  0  0  0  0  0  0  0
  1  9  1  0  0  0  0
  1 11  1  0  0  0  0
  1 12  1  0  0  0  0
  1 14  2  0  0  0  0
  2 10  1  0  0  0  0
  2 11  1  0  0  0  0
  2 13  1  0  0  0  0
  2 15  2  0  0  0  0
  3 22  1  0  0  0  0
  3 26  1  0  0  0  0
  4 25  1  0  0  0  0
  4 29  1  0  0  0  0
 23  5  1  1  0  0  0
  5 50  1  0  0  0  0
 24  6  1  1  0  0  0
  6 51  1  0  0  0  0
 27  7  1  6  0  0  0
  7 52  1  0  0  0  0
 28  8  1  6  0  0  0
  8 53  1  0  0  0  0
  9 31  1  0  0  0  0
 10 32  1  0  0  0  0
 12 58  1  0  0  0  0
 13 59  1  0  0  0  0
 16 22  1  0  0  0  0
 16 30  1  0  0  0  0
 16 35  1  0  0  0  0
 17 25  1  0  0  0  0
 17 34  2  0  0  0  0
 17 36  1  0  0  0  0
 18 30  1  0  0  0  0
 18 36  2  0  0  0  0
 19 33  1  0  0  0  0
 19 35  2  0  0  0  0
 20 34  1  0  0  0  0
 20 54  1  0  0  0  0
 20 55  1  0  0  0  0
 21 35  1  0  0  0  0
 21 56  1  0  0  0  0
 21 57  1  0  0  0  0
 22 23  1  0  0  0  0
 22 37  1  1  0  0  0
 23 24  1  0  0  0  0
 23 38  1  0  0  0  0
 24 26  1  0  0  0  0
 24 39  1  0  0  0  0
 25 27  1  0  0  0  0
 25 40  1  6  0  0  0
 26 31  1  0  0  0  0
 26 41  1  1  0  0  0
 27 28  1  0  0  0  0
 27 42  1  0  0  0  0
 28 29  1  0  0  0  0
 28 43  1  0  0  0  0
 29 32  1  0  0  0  0
 29 44  1  6  0  0  0
 30 33  2  0  0  0  0
 31 45  1  0  0  0  0
 31 46  1  0  0  0  0
 32 47  1  0  0  0  0
 32 48  1  0  0  0  0
 33 34  1  0  0  0  0
 36 49  1  0  0  0  0
M  CHG  1  17   1
M  END
> <PUBCHEM_COMPOUND_CID>
44457114

> <PUBCHEM_COMPOUND_CANONICALIZED>
1

> <PUBCHEM_CACTVS_COMPLEXITY>
938

> <PUBCHEM_CACTVS_HBOND_ACCEPTOR>
17

> <PUBCHEM_CACTVS_HBOND_DONOR>
8

> <PUBCHEM_CACTVS_ROTATABLE_BOND>
0

> <PUBCHEM_CACTVS_SUBSKEYS>
AAADceBzvAMAAAAAAAAAAAAAAAAAAWJEgAAsAAAAAAAAAAAB4AAAHgAQCCAACBzhlwYF8L9MFxCgQQZhZICAgC0REKABUCAoVBCDWAJAyEAeRAgPAALTACDwMAIAAAAAAAAAAAAAAAAAAAAAAAAAAAAAAA==

> <PUBCHEM_IUPAC_OPENEYE_NAME>
(2R,3R,4S,5R,13R,14S,15R,16R)-18,24-diamino-8,10-dihydroxy-8,10-dioxo-7,9,11,25,26-pentaoxa-17,19,22-triaza-1-azonia-8lambda5,10lambda5-diphosphapentacyclo[18.3.1.12,5.113,16.017,21]hexacosa-1(24),18,20,22-tetraene-3,4,14,15-tetrol

> <PUBCHEM_IUPAC_CAS_NAME>
(2R,3R,4S,5R,13R,14S,15R,16R)-18,24-diamino-8,10-dihydroxy-8,10-dioxo-7,9,11,25,26-pentaoxa-17,19,22-triaza-1-azonia-8lambda5,10lambda5-diphosphapentacyclo[18.3.1.12,5.113,16.017,21]hexacosa-1(24),18,20,22-tetraene-3,4,14,15-tetrol

> <PUBCHEM_IUPAC_NAME_MARKUP>
(2<I>R</I>,3<I>R</I>,4<I>S</I>,5<I>R</I>,13<I>R</I>,14<I>S</I>,15<I>R</I>,16<I>R</I>)-18,24-diamino-8,10-dihydroxy-8,10-dioxo-7,9,11,25,26-pentaoxa-17,19,22-triaza-1-azonia-8&lambda;<SUP>5</SUP>,10&lambda;<SUP>5</SUP>-diphosphapentacyclo[18.3.1.1<SUP>2,5</SUP>.1<SUP>13,16</SUP>.0<SUP>17,21</SUP>]hexacosa-1(24),18,20,22-tetraene-3,4,14,15-tetrol

> <PUBCHEM_IUPAC_NAME>
(2R,3R,4S,5R,13R,14S,15R,16R)-18,24-diamino-8,10-dihydroxy-8,10-dioxo-7,9,11,25,26-pentaoxa-17,19,22-triaza-1-azonia-8lambda5,10lambda5-diphosphapentacyclo[18.3.1.12,5.113,16.017,21]hexacosa-1(24),18,20,22-tetraene-3,4,14,15-tetrol

> <PUBCHEM_IUPAC_SYSTEMATIC_NAME>
(2R,3R,4S,5R,13R,14S,15R,16R)-18,24-bis(azanyl)-8,10-bis(oxidanyl)-8,10-bis(oxidanylidene)-7,9,11,25,26-pentaoxa-17,19,22-triaza-1-azonia-8lambda5,10lambda5-diphosphapentacyclo[18.3.1.12,5.113,16.017,21]hexacosa-1(24),18,20,22-tetraene-3,4,14,15-tetrol

> <PUBCHEM_IUPAC_TRADITIONAL_NAME>
(2R,3R,4S,5R,13R,14S,15R,16R)-18,24-diamino-8,10-dihydroxy-8,10-diketo-7,9,11,25,26-pentaoxa-17,19,22-triaza-1-azonia-8lambda5,10lambda5-diphosphapentacyclo[18.3.1.12,5.113,16.017,21]hexacosa-1(24),18,20,22-tetraene-3,4,14,15-tetrol

> <PUBCHEM_IUPAC_INCHI>
InChI=1S/C15H22N6O13P2/c16-11-6-12-18-3-20(11)13-9(24)7(22)4(32-13)1-30-35(26,27)34-36(28,29)31-2-5-8(23)10(25)14(33-5)21(12)15(17)19-6/h3-5,7-10,13-14,16,22-25H,1-2H2,(H4,17,19,26,27,28,29)/p+1/t4-,5-,7-,8-,9-,10-,13-,14-/m1/s1

> <PUBCHEM_IUPAC_INCHIKEY>
ALYGFGGWKNVFPM-AIKIOGRUSA-O

> <PUBCHEM_XLOGP3_AA>
-6

> <PUBCHEM_EXACT_MASS>
557.07983380

> <PUBCHEM_MOLECULAR_FORMULA>
C15H23N6O13P2+

> <PUBCHEM_MOLECULAR_WEIGHT>
557.32

> <PUBCHEM_OPENEYE_CAN_SMILES>
C1C2C(C(C(O2)N3C4=C(C(=[N+](C=N4)C5C(C(C(O5)COP(=O)(OP(=O)(O1)O)O)O)O)N)N=C3N)O)O

> <PUBCHEM_OPENEYE_ISO_SMILES>
C1[C@@H]2[C@H]([C@H]([C@@H](O2)N3C4=C(C(=[N+](C=N4)[C@H]5[C@@H]([C@@H]([C@H](O5)COP(=O)(OP(=O)(O1)O)O)O)O)N)N=C3N)O)O

> <PUBCHEM_CACTVS_TPSA>
288

> <PUBCHEM_MONOISOTOPIC_WEIGHT>
557.07983380

> <PUBCHEM_TOTAL_CHARGE>
1

> <PUBCHEM_HEAVY_ATOM_COUNT>
36

> <PUBCHEM_ATOM_DEF_STEREO_COUNT>
8

> <PUBCHEM_ATOM_UDEF_STEREO_COUNT>
0

> <PUBCHEM_BOND_DEF_STEREO_COUNT>
0

> <PUBCHEM_BOND_UDEF_STEREO_COUNT>
0

> <PUBCHEM_ISOTOPIC_ATOM_COUNT>
0

> <PUBCHEM_COMPONENT_COUNT>
1

> <PUBCHEM_CACTVS_TAUTO_COUNT>
-1

> <PUBCHEM_COORDINATE_TYPE>
1
5
255

> <PUBCHEM_BONDANNOTATIONS>
16  30  8
16  35  8
17  34  8
17  36  8
18  30  8
18  36  8
19  33  8
19  35  8
22  37  5
25  40  6
26  41  5
29  44  6
30  33  8
33  34  8
23  5  5
24  6  5
27  7  6
28  8  6

$$$$
