 
  -OEChem-10192104172D

 47 49  0     0  0  0  0  0  0999 V2000
    5.5301   -1.9879    0.0000 O   0  0  0  0  0  0  0  0  0  0  0  0
    8.1282   -1.4879    0.0000 O   0  0  0  0  0  0  0  0  0  0  0  0
    2.0000    0.0362    0.0000 O   0  0  0  0  0  0  0  0  0  0  0  0
    8.1282    2.5121    0.0000 O   0  0  0  0  0  0  0  0  0  0  0  0
    2.0000   -2.0121    0.0000 O   0  0  0  0  0  0  0  0  0  0  0  0
    5.5301    1.0121    0.0000 O   0  0  0  0  0  0  0  0  0  0  0  0
    9.8602    1.5121    0.0000 O   0  0  0  0  0  0  0  0  0  0  0  0
    6.3961   -0.4879    0.0000 C   0  0  0  0  0  0  0  0  0  0  0  0
    7.2622    0.0121    0.0000 C   0  0  0  0  0  0  0  0  0  0  0  0
    4.6641   -0.4879    0.0000 C   0  0  0  0  0  0  0  0  0  0  0  0
    5.5301    0.0121    0.0000 C   0  0  0  0  0  0  0  0  0  0  0  0
    4.6641   -1.4879    0.0000 C   0  0  0  0  0  0  0  0  0  0  0  0
    8.1282   -0.4879    0.0000 C   0  0  0  0  0  0  0  0  0  0  0  0
    3.7702    0.0467    0.0000 C   0  0  0  0  0  0  0  0  0  0  0  0
    7.2622    1.0121    0.0000 C   0  0  0  0  0  0  0  0  0  0  0  0
    6.3961   -1.4879    0.0000 C   0  0  0  0  0  0  0  0  0  0  0  0
    3.7702   -2.0226    0.0000 C   0  0  0  0  0  0  0  0  0  0  0  0
    2.8641   -0.4671    0.0000 C   0  0  0  0  0  0  0  0  0  0  0  0
    8.1282    1.5121    0.0000 C   0  0  0  0  0  0  0  0  0  0  0  0
    2.8641   -1.5087    0.0000 C   0  0  0  0  0  0  0  0  0  0  0  0
    8.9942    0.0121    0.0000 C   0  0  0  0  0  0  0  0  0  0  0  0
    8.9942    1.0121    0.0000 C   0  0  0  0  0  0  0  0  0  0  0  0
    8.9942   -1.9879    0.0000 C   0  0  0  0  0  0  0  0  0  0  0  0
    2.0038    1.0362    0.0000 C   0  0  0  0  0  0  0  0  0  0  0  0
    8.9942    3.0121    0.0000 C   0  0  0  0  0  0  0  0  0  0  0  0
    2.0038   -3.0121    0.0000 C   0  0  0  0  0  0  0  0  0  0  0  0
   10.7263    1.0121    0.0000 C   0  0  0  0  0  0  0  0  0  0  0  0
    3.7773    0.6667    0.0000 H   0  0  0  0  0  0  0  0  0  0  0  0
    6.7252    1.3221    0.0000 H   0  0  0  0  0  0  0  0  0  0  0  0
    6.9331   -1.7979    0.0000 H   0  0  0  0  0  0  0  0  0  0  0  0
    3.7773   -2.6426    0.0000 H   0  0  0  0  0  0  0  0  0  0  0  0
    9.5312   -0.2979    0.0000 H   0  0  0  0  0  0  0  0  0  0  0  0
    8.6842   -2.5249    0.0000 H   0  0  0  0  0  0  0  0  0  0  0  0
    9.5312   -2.2979    0.0000 H   0  0  0  0  0  0  0  0  0  0  0  0
    9.3042   -1.4510    0.0000 H   0  0  0  0  0  0  0  0  0  0  0  0
    2.6238    1.0338    0.0000 H   0  0  0  0  0  0  0  0  0  0  0  0
    2.0062    1.6562    0.0000 H   0  0  0  0  0  0  0  0  0  0  0  0
    1.3839    1.0386    0.0000 H   0  0  0  0  0  0  0  0  0  0  0  0
    9.3042    2.4751    0.0000 H   0  0  0  0  0  0  0  0  0  0  0  0
    9.5312    3.3221    0.0000 H   0  0  0  0  0  0  0  0  0  0  0  0
    8.6842    3.5490    0.0000 H   0  0  0  0  0  0  0  0  0  0  0  0
    1.3839   -3.0145    0.0000 H   0  0  0  0  0  0  0  0  0  0  0  0
    2.0062   -3.6321    0.0000 H   0  0  0  0  0  0  0  0  0  0  0  0
    2.6238   -3.0097    0.0000 H   0  0  0  0  0  0  0  0  0  0  0  0
   10.4163    0.4751    0.0000 H   0  0  0  0  0  0  0  0  0  0  0  0
   11.2632    0.7021    0.0000 H   0  0  0  0  0  0  0  0  0  0  0  0
   11.0363    1.5490    0.0000 H   0  0  0  0  0  0  0  0  0  0  0  0
  1 12  1  0  0  0  0
  1 16  1  0  0  0  0
  2 13  1  0  0  0  0
  2 23  1  0  0  0  0
  3 18  1  0  0  0  0
  3 24  1  0  0  0  0
  4 19  1  0  0  0  0
  4 25  1  0  0  0  0
  5 20  1  0  0  0  0
  5 26  1  0  0  0  0
  6 11  2  0  0  0  0
  7 22  1  0  0  0  0
  7 27  1  0  0  0  0
  8  9  1  0  0  0  0
  8 11  1  0  0  0  0
  8 16  2  0  0  0  0
  9 13  1  0  0  0  0
  9 15  2  0  0  0  0
 10 11  1  0  0  0  0
 10 12  1  0  0  0  0
 10 14  2  0  0  0  0
 12 17  2  0  0  0  0
 13 21  2  0  0  0  0
 14 18  1  0  0  0  0
 14 28  1  0  0  0  0
 15 19  1  0  0  0  0
 15 29  1  0  0  0  0
 16 30  1  0  0  0  0
 17 20  1  0  0  0  0
 17 31  1  0  0  0  0
 18 20  2  0  0  0  0
 19 22  2  0  0  0  0
 21 22  1  0  0  0  0
 21 32  1  0  0  0  0
 23 33  1  0  0  0  0
 23 34  1  0  0  0  0
 23 35  1  0  0  0  0
 24 36  1  0  0  0  0
 24 37  1  0  0  0  0
 24 38  1  0  0  0  0
 25 39  1  0  0  0  0
 25 40  1  0  0  0  0
 25 41  1  0  0  0  0
 26 42  1  0  0  0  0
 26 43  1  0  0  0  0
 26 44  1  0  0  0  0
 27 45  1  0  0  0  0
 27 46  1  0  0  0  0
 27 47  1  0  0  0  0
M  END
> <PUBCHEM_COMPOUND_CID>
632958

> <PUBCHEM_COMPOUND_CANONICALIZED>
1

> <PUBCHEM_CACTVS_COMPLEXITY>
548

> <PUBCHEM_CACTVS_HBOND_ACCEPTOR>
7

> <PUBCHEM_CACTVS_HBOND_DONOR>
0

> <PUBCHEM_CACTVS_ROTATABLE_BOND>
6

> <PUBCHEM_CACTVS_SUBSKEYS>
AAADceB4OAAAAAAAAAAAAAAAAAAAAAAAAAAwYIAAAAAAAACBQAAAGgAAAAAADASgmAIyBoAABACIAqBSAAACCAAkIAAAiAEGiMgNJzaENBqAMWIl4BUKqYfK7PzOIQABCAAIQABCAAIQABCAAAAAAAAAAA==

> <PUBCHEM_IUPAC_OPENEYE_NAME>
6,7-dimethoxy-3-(2,4,5-trimethoxyphenyl)chromen-4-one

> <PUBCHEM_IUPAC_CAS_NAME>
6,7-dimethoxy-3-(2,4,5-trimethoxyphenyl)-1-benzopyran-4-one

> <PUBCHEM_IUPAC_NAME_MARKUP>
6,7-dimethoxy-3-(2,4,5-trimethoxyphenyl)chromen-4-one

> <PUBCHEM_IUPAC_NAME>
6,7-dimethoxy-3-(2,4,5-trimethoxyphenyl)chromen-4-one

> <PUBCHEM_IUPAC_SYSTEMATIC_NAME>
6,7-dimethoxy-3-(2,4,5-trimethoxyphenyl)chromen-4-one

> <PUBCHEM_IUPAC_TRADITIONAL_NAME>
3-asaryl-6,7-dimethoxy-chromone

> <PUBCHEM_IUPAC_INCHI>
InChI=1S/C20H20O7/c1-22-14-8-18(25-4)16(23-2)6-11(14)13-10-27-15-9-19(26-5)17(24-3)7-12(15)20(13)21/h6-10H,1-5H3

> <PUBCHEM_IUPAC_INCHIKEY>
ADVSBKKAOLGTQF-UHFFFAOYSA-N

> <PUBCHEM_XLOGP3_AA>
3

> <PUBCHEM_EXACT_MASS>
372.12090297

> <PUBCHEM_MOLECULAR_FORMULA>
C20H20O7

> <PUBCHEM_MOLECULAR_WEIGHT>
372.4

> <PUBCHEM_OPENEYE_CAN_SMILES>
COC1=CC(=C(C=C1C2=COC3=CC(=C(C=C3C2=O)OC)OC)OC)OC

> <PUBCHEM_OPENEYE_ISO_SMILES>
COC1=CC(=C(C=C1C2=COC3=CC(=C(C=C3C2=O)OC)OC)OC)OC

> <PUBCHEM_CACTVS_TPSA>
72.4

> <PUBCHEM_MONOISOTOPIC_WEIGHT>
372.12090297

> <PUBCHEM_TOTAL_CHARGE>
0

> <PUBCHEM_HEAVY_ATOM_COUNT>
27

> <PUBCHEM_ATOM_DEF_STEREO_COUNT>
0

> <PUBCHEM_ATOM_UDEF_STEREO_COUNT>
0

> <PUBCHEM_BOND_DEF_STEREO_COUNT>
0

> <PUBCHEM_BOND_UDEF_STEREO_COUNT>
0

> <PUBCHEM_ISOTOPIC_ATOM_COUNT>
0

> <PUBCHEM_COMPONENT_COUNT>
1

> <PUBCHEM_CACTVS_TAUTO_COUNT>
1

> <PUBCHEM_COORDINATE_TYPE>
1
5
255

> <PUBCHEM_BONDANNOTATIONS>
1  12  8
1  16  8
10  11  8
10  12  8
10  14  8
12  17  8
13  21  8
14  18  8
15  19  8
17  20  8
18  20  8
19  22  8
21  22  8
8  11  8
8  16  8
9  13  8
9  15  8

$$$$
