 
  -OEChem-10192103372D

 70 74  0     1  0  0  0  0  0999 V2000
    8.4777    3.5716    0.0000 O   0  0  0  0  0  0  0  0  0  0  0  0
    9.5558   -2.4939    0.0000 O   0  0  0  0  0  0  0  0  0  0  0  0
   12.0684   -0.0006    0.0000 O   0  0  0  0  0  0  0  0  0  0  0  0
    5.4255   -3.6418    0.0000 O   0  0  0  0  0  0  0  0  0  0  0  0
    3.7274   -2.4964    0.0000 O   0  0  0  0  0  0  0  0  0  0  0  0
    7.6291    5.0815    0.0000 O   0  0  0  0  0  0  0  0  0  0  0  0
   11.2235   -2.9615    0.0000 O   0  0  0  0  0  0  0  0  0  0  0  0
   12.5232   -1.6719    0.0000 O   0  0  0  0  0  0  0  0  0  0  0  0
    3.6972   -3.5277    0.0000 O   0  0  0  0  0  0  0  0  0  0  0  0
    2.9741   -0.9368    0.0000 O   0  0  0  0  0  0  0  0  0  0  0  0
    7.9605    0.6915    0.0000 C   0  0  3  0  0  0  0  0  0  0  0  0
    7.7017   -0.2744    0.0000 C   0  0  3  0  0  0  0  0  0  0  0  0
    7.5899    2.0401    0.0000 C   0  0  0  0  0  0  0  0  0  0  0  0
    5.9273    0.3804    0.0000 C   0  0  0  0  0  0  0  0  0  0  0  0
    9.3595    0.1827    0.0000 C   0  0  0  0  0  0  0  0  0  0  0  0
    6.7239    1.5401    0.0000 C   0  0  0  0  0  0  0  0  0  0  0  0
    9.1006   -0.7833    0.0000 C   0  0  0  0  0  0  0  0  0  0  0  0
    6.4807   -1.1401    0.0000 C   0  0  0  0  0  0  0  0  0  0  0  0
    5.6516   -0.5809    0.0000 C   0  0  0  0  0  0  0  0  0  0  0  0
    7.6060    3.0816    0.0000 C   0  0  0  0  0  0  0  0  0  0  0  0
    5.8139    2.0470    0.0000 C   0  0  0  0  0  0  0  0  0  0  0  0
    9.8257   -1.5311    0.0000 C   0  0  0  0  0  0  0  0  0  0  0  0
   10.3613    0.4677    0.0000 C   0  0  0  0  0  0  0  0  0  0  0  0
    6.4240   -2.1802    0.0000 C   0  0  0  0  0  0  0  0  0  0  0  0
    4.7085   -1.0230    0.0000 C   0  0  0  0  0  0  0  0  0  0  0  0
    5.8059    3.0886    0.0000 C   0  0  0  0  0  0  0  0  0  0  0  0
    6.7080    3.6094    0.0000 C   0  0  0  0  0  0  0  0  0  0  0  0
   11.1035   -0.2631    0.0000 C   0  0  0  0  0  0  0  0  0  0  0  0
   10.8339   -1.2692    0.0000 C   0  0  0  0  0  0  0  0  0  0  0  0
    5.4914   -2.6440    0.0000 C   0  0  0  0  0  0  0  0  0  0  0  0
    4.6278   -2.0615    0.0000 C   0  0  0  0  0  0  0  0  0  0  0  0
    4.9379    3.5852    0.0000 C   0  0  0  0  0  0  0  0  0  0  0  0
    8.4893    4.5715    0.0000 C   0  0  0  0  0  0  0  0  0  0  0  0
   10.2547   -3.2092    0.0000 C   0  0  0  0  0  0  0  0  0  0  0  0
   12.7783   -0.7049    0.0000 C   0  0  0  0  0  0  0  0  0  0  0  0
    4.5284   -4.0837    0.0000 C   0  0  0  0  0  0  0  0  0  0  0  0
    2.9005   -1.9341    0.0000 C   0  0  0  0  0  0  0  0  0  0  0  0
    9.3610    5.0615    0.0000 C   0  0  0  0  0  0  0  0  0  0  0  0
    9.9847   -4.1720    0.0000 C   0  0  0  0  0  0  0  0  0  0  0  0
   13.7432   -0.4424    0.0000 C   0  0  0  0  0  0  0  0  0  0  0  0
    4.4625   -5.0815    0.0000 C   0  0  0  0  0  0  0  0  0  0  0  0
    2.0000   -2.3690    0.0000 C   0  0  0  0  0  0  0  0  0  0  0  0
    7.8996    0.0745    0.0000 H   0  0  0  0  0  0  0  0  0  0  0  0
    7.7845   -0.8889    0.0000 H   0  0  0  0  0  0  0  0  0  0  0  0
    5.9222    1.0003    0.0000 H   0  0  0  0  0  0  0  0  0  0  0  0
    5.3130    0.4641    0.0000 H   0  0  0  0  0  0  0  0  0  0  0  0
    5.2806    1.7308    0.0000 H   0  0  0  0  0  0  0  0  0  0  0  0
   10.5149    1.0684    0.0000 H   0  0  0  0  0  0  0  0  0  0  0  0
    6.9420   -2.5209    0.0000 H   0  0  0  0  0  0  0  0  0  0  0  0
    4.1985   -0.6704    0.0000 H   0  0  0  0  0  0  0  0  0  0  0  0
    6.7103    4.2294    0.0000 H   0  0  0  0  0  0  0  0  0  0  0  0
   11.2706   -1.7093    0.0000 H   0  0  0  0  0  0  0  0  0  0  0  0
    5.2459    4.1234    0.0000 H   0  0  0  0  0  0  0  0  0  0  0  0
    4.3998    3.8932    0.0000 H   0  0  0  0  0  0  0  0  0  0  0  0
    4.6300    3.0471    0.0000 H   0  0  0  0  0  0  0  0  0  0  0  0
    9.6648    4.5210    0.0000 H   0  0  0  0  0  0  0  0  0  0  0  0
    9.9015    5.3652    0.0000 H   0  0  0  0  0  0  0  0  0  0  0  0
    9.0573    5.6020    0.0000 H   0  0  0  0  0  0  0  0  0  0  0  0
    9.3877   -4.0047    0.0000 H   0  0  0  0  0  0  0  0  0  0  0  0
    9.8173   -4.7690    0.0000 H   0  0  0  0  0  0  0  0  0  0  0  0
   10.5817   -4.3394    0.0000 H   0  0  0  0  0  0  0  0  0  0  0  0
   13.9060   -1.0406    0.0000 H   0  0  0  0  0  0  0  0  0  0  0  0
   14.3414   -0.2796    0.0000 H   0  0  0  0  0  0  0  0  0  0  0  0
   13.5804    0.1559    0.0000 H   0  0  0  0  0  0  0  0  0  0  0  0
    3.8438   -5.0406    0.0000 H   0  0  0  0  0  0  0  0  0  0  0  0
    4.4216   -5.7002    0.0000 H   0  0  0  0  0  0  0  0  0  0  0  0
    5.0811   -5.1224    0.0000 H   0  0  0  0  0  0  0  0  0  0  0  0
    1.7304   -1.8107    0.0000 H   0  0  0  0  0  0  0  0  0  0  0  0
    1.4417   -2.6386    0.0000 H   0  0  0  0  0  0  0  0  0  0  0  0
    2.2696   -2.9273    0.0000 H   0  0  0  0  0  0  0  0  0  0  0  0
  1 20  1  0  0  0  0
  1 33  1  0  0  0  0
  2 22  1  0  0  0  0
  2 34  1  0  0  0  0
  3 28  1  0  0  0  0
  3 35  1  0  0  0  0
  4 30  1  0  0  0  0
  4 36  1  0  0  0  0
  5 31  1  0  0  0  0
  5 37  1  0  0  0  0
  6 33  2  0  0  0  0
  7 34  2  0  0  0  0
  8 35  2  0  0  0  0
  9 36  2  0  0  0  0
 10 37  2  0  0  0  0
 11 13  1  0  0  0  0
 11 14  1  0  0  0  0
 11 15  1  0  0  0  0
 11 43  1  0  0  0  0
 12 16  1  0  0  0  0
 12 17  1  0  0  0  0
 12 18  1  0  0  0  0
 12 44  1  0  0  0  0
 13 16  2  0  0  0  0
 13 20  1  0  0  0  0
 14 19  1  0  0  0  0
 14 45  1  0  0  0  0
 14 46  1  0  0  0  0
 15 17  2  0  0  0  0
 15 23  1  0  0  0  0
 16 21  1  0  0  0  0
 17 22  1  0  0  0  0
 18 19  1  0  0  0  0
 18 24  2  0  0  0  0
 19 25  2  0  0  0  0
 20 27  2  0  0  0  0
 21 26  2  0  0  0  0
 21 47  1  0  0  0  0
 22 29  2  0  0  0  0
 23 28  2  0  0  0  0
 23 48  1  0  0  0  0
 24 30  1  0  0  0  0
 24 49  1  0  0  0  0
 25 31  1  0  0  0  0
 25 50  1  0  0  0  0
 26 27  1  0  0  0  0
 26 32  1  0  0  0  0
 27 51  1  0  0  0  0
 28 29  1  0  0  0  0
 29 52  1  0  0  0  0
 30 31  2  0  0  0  0
 32 53  1  0  0  0  0
 32 54  1  0  0  0  0
 32 55  1  0  0  0  0
 33 38  1  0  0  0  0
 34 39  1  0  0  0  0
 35 40  1  0  0  0  0
 36 41  1  0  0  0  0
 37 42  1  0  0  0  0
 38 56  1  0  0  0  0
 38 57  1  0  0  0  0
 38 58  1  0  0  0  0
 39 59  1  0  0  0  0
 39 60  1  0  0  0  0
 39 61  1  0  0  0  0
 40 62  1  0  0  0  0
 40 63  1  0  0  0  0
 40 64  1  0  0  0  0
 41 65  1  0  0  0  0
 41 66  1  0  0  0  0
 41 67  1  0  0  0  0
 42 68  1  0  0  0  0
 42 69  1  0  0  0  0
 42 70  1  0  0  0  0
M  END
> <PUBCHEM_COMPOUND_CID>
89026768

> <PUBCHEM_COMPOUND_CANONICALIZED>
1

> <PUBCHEM_CACTVS_COMPLEXITY>
1090

> <PUBCHEM_CACTVS_HBOND_ACCEPTOR>
10

> <PUBCHEM_CACTVS_HBOND_DONOR>
0

> <PUBCHEM_CACTVS_ROTATABLE_BOND>
10

> <PUBCHEM_CACTVS_SUBSKEYS>
AAADceB8PAAAAAAAAAAAAAAAAAAAAAAAAAAwYMGABgwAAADBUAAAGgAAAAAADQSAmAAyDoAABACIAiDSCAACCAAgIAAAiAAGiIgNJyKEMRqCOiKlwBUKqAeA4PwO4AADCAAYQADAAAYQADCAAAAAAAAAAA==

> <PUBCHEM_IUPAC_OPENEYE_NAME>
(4,5,14,20-tetraacetoxy-18-methyl-12-pentacyclo[7.6.6.02,7.010,15.016,21]henicosa-2,4,6,10(15),11,13,16(21),17,19-nonaenyl) acetate

> <PUBCHEM_IUPAC_CAS_NAME>
acetic acid (4,5,14,20-tetraacetyloxy-18-methyl-12-pentacyclo[7.6.6.02,7.010,15.016,21]heneicosa-2,4,6,10(15),11,13,16(21),17,19-nonaenyl) ester

> <PUBCHEM_IUPAC_NAME_MARKUP>
(4,5,14,20-tetraacetyloxy-18-methyl-12-pentacyclo[7.6.6.0<SUP>2,7</SUP>.0<SUP>10,15</SUP>.0<SUP>16,21</SUP>]henicosa-2,4,6,10(15),11,13,16(21),17,19-nonaenyl) acetate

> <PUBCHEM_IUPAC_NAME>
(4,5,14,20-tetraacetyloxy-18-methyl-12-pentacyclo[7.6.6.02,7.010,15.016,21]henicosa-2,4,6,10(15),11,13,16(21),17,19-nonaenyl) acetate

> <PUBCHEM_IUPAC_SYSTEMATIC_NAME>
(4,5,14,20-tetraacetyloxy-18-methyl-12-pentacyclo[7.6.6.02,7.010,15.016,21]henicosa-2,4,6,10(15),11,13,16(21),17,19-nonaenyl) ethanoate

> <PUBCHEM_IUPAC_TRADITIONAL_NAME>
acetic acid (4,5,14,20-tetraacetoxy-18-methyl-12-pentacyclo[7.6.6.02,7.010,15.016,21]heneicosa-2,4,6,10(15),11,13,16(21),17,19-nonaenyl) ester

> <PUBCHEM_IUPAC_INCHI>
InChI=1S/C32H28O10/c1-14-7-25-30(28(8-14)41-18(5)36)23-9-20-10-26(39-16(3)34)27(40-17(4)35)13-22(20)31(25)32-24(23)11-21(38-15(2)33)12-29(32)42-19(6)37/h7-8,10-13,23,31H,9H2,1-6H3

> <PUBCHEM_IUPAC_INCHIKEY>
AMWCVRBEDSRRGD-UHFFFAOYSA-N

> <PUBCHEM_XLOGP3_AA>
4.2

> <PUBCHEM_EXACT_MASS>
572.16824709

> <PUBCHEM_MOLECULAR_FORMULA>
C32H28O10

> <PUBCHEM_MOLECULAR_WEIGHT>
572.6

> <PUBCHEM_OPENEYE_CAN_SMILES>
CC1=CC2=C(C3CC4=CC(=C(C=C4C2C5=C3C=C(C=C5OC(=O)C)OC(=O)C)OC(=O)C)OC(=O)C)C(=C1)OC(=O)C

> <PUBCHEM_OPENEYE_ISO_SMILES>
CC1=CC2=C(C3CC4=CC(=C(C=C4C2C5=C3C=C(C=C5OC(=O)C)OC(=O)C)OC(=O)C)OC(=O)C)C(=C1)OC(=O)C

> <PUBCHEM_CACTVS_TPSA>
132

> <PUBCHEM_MONOISOTOPIC_WEIGHT>
572.16824709

> <PUBCHEM_TOTAL_CHARGE>
0

> <PUBCHEM_HEAVY_ATOM_COUNT>
42

> <PUBCHEM_ATOM_DEF_STEREO_COUNT>
0

> <PUBCHEM_ATOM_UDEF_STEREO_COUNT>
2

> <PUBCHEM_BOND_DEF_STEREO_COUNT>
0

> <PUBCHEM_BOND_UDEF_STEREO_COUNT>
0

> <PUBCHEM_ISOTOPIC_ATOM_COUNT>
0

> <PUBCHEM_COMPONENT_COUNT>
1

> <PUBCHEM_CACTVS_TAUTO_COUNT>
-1

> <PUBCHEM_COORDINATE_TYPE>
1
5
255

> <PUBCHEM_BONDANNOTATIONS>
11  14  3
12  16  3
13  16  8
13  20  8
15  17  8
15  23  8
16  21  8
17  22  8
18  19  8
18  24  8
19  25  8
20  27  8
21  26  8
22  29  8
23  28  8
24  30  8
25  31  8
26  27  8
28  29  8
30  31  8

$$$$
