 
  -OEChem-10192104122D

 48 47  0     0  0  0  0  0  0999 V2000
   10.3312   -1.2500    0.0000 O   0  0  0  0  0  0  0  0  0  0  0  0
    2.5369    0.2500    0.0000 O   0  0  0  0  0  0  0  0  0  0  0  0
    3.4030   -1.2500    0.0000 O   0  0  0  0  0  0  0  0  0  0  0  0
   16.3933    1.2500    0.0000 O   0  0  0  0  0  0  0  0  0  0  0  0
    6.8671   -0.2500    0.0000 C   0  0  0  0  0  0  0  0  0  0  0  0
    7.7331    0.2500    0.0000 C   0  0  0  0  0  0  0  0  0  0  0  0
    6.0010    0.2500    0.0000 C   0  0  0  0  0  0  0  0  0  0  0  0
    8.5991   -0.2500    0.0000 C   0  0  0  0  0  0  0  0  0  0  0  0
    5.1350   -0.2500    0.0000 C   0  0  0  0  0  0  0  0  0  0  0  0
    9.4651    0.2500    0.0000 C   0  0  0  0  0  0  0  0  0  0  0  0
    4.2690    0.2500    0.0000 C   0  0  0  0  0  0  0  0  0  0  0  0
   10.3312   -0.2500    0.0000 C   0  0  0  0  0  0  0  0  0  0  0  0
    3.4030   -0.2500    0.0000 C   0  0  0  0  0  0  0  0  0  0  0  0
   11.1972    0.2500    0.0000 C   0  0  0  0  0  0  0  0  0  0  0  0
   12.0632   -0.2500    0.0000 C   0  0  0  0  0  0  0  0  0  0  0  0
   12.9292    0.2500    0.0000 C   0  0  0  0  0  0  0  0  0  0  0  0
   13.7953   -0.2500    0.0000 C   0  0  0  0  0  0  0  0  0  0  0  0
   17.2594   -0.2500    0.0000 C   0  0  0  0  0  0  0  0  0  0  0  0
   14.6613    0.2500    0.0000 C   0  0  0  0  0  0  0  0  0  0  0  0
   16.3933    0.2500    0.0000 C   0  0  0  0  0  0  0  0  0  0  0  0
   15.5273   -0.2500    0.0000 C   0  0  0  0  0  0  0  0  0  0  0  0
   18.1254    0.2500    0.0000 C   0  0  0  0  0  0  0  0  0  0  0  0
    6.4685   -0.7249    0.0000 H   0  0  0  0  0  0  0  0  0  0  0  0
    7.2656   -0.7249    0.0000 H   0  0  0  0  0  0  0  0  0  0  0  0
    8.1316    0.7249    0.0000 H   0  0  0  0  0  0  0  0  0  0  0  0
    7.3346    0.7249    0.0000 H   0  0  0  0  0  0  0  0  0  0  0  0
    6.3996    0.7249    0.0000 H   0  0  0  0  0  0  0  0  0  0  0  0
    5.6025    0.7249    0.0000 H   0  0  0  0  0  0  0  0  0  0  0  0
    8.2006   -0.7249    0.0000 H   0  0  0  0  0  0  0  0  0  0  0  0
    8.9976   -0.7249    0.0000 H   0  0  0  0  0  0  0  0  0  0  0  0
    4.7365   -0.7249    0.0000 H   0  0  0  0  0  0  0  0  0  0  0  0
    5.5335   -0.7249    0.0000 H   0  0  0  0  0  0  0  0  0  0  0  0
    9.8637    0.7249    0.0000 H   0  0  0  0  0  0  0  0  0  0  0  0
    9.0666    0.7249    0.0000 H   0  0  0  0  0  0  0  0  0  0  0  0
    4.6675    0.7249    0.0000 H   0  0  0  0  0  0  0  0  0  0  0  0
    3.8705    0.7249    0.0000 H   0  0  0  0  0  0  0  0  0  0  0  0
   11.1972    0.8700    0.0000 H   0  0  0  0  0  0  0  0  0  0  0  0
   12.0632   -0.8700    0.0000 H   0  0  0  0  0  0  0  0  0  0  0  0
    2.0000   -0.0600    0.0000 H   0  0  0  0  0  0  0  0  0  0  0  0
   12.9292    0.8700    0.0000 H   0  0  0  0  0  0  0  0  0  0  0  0
   13.7953   -0.8700    0.0000 H   0  0  0  0  0  0  0  0  0  0  0  0
   16.8608   -0.7249    0.0000 H   0  0  0  0  0  0  0  0  0  0  0  0
   17.6579   -0.7249    0.0000 H   0  0  0  0  0  0  0  0  0  0  0  0
   14.6613    0.8700    0.0000 H   0  0  0  0  0  0  0  0  0  0  0  0
   15.5273   -0.8700    0.0000 H   0  0  0  0  0  0  0  0  0  0  0  0
   18.4354   -0.2869    0.0000 H   0  0  0  0  0  0  0  0  0  0  0  0
   18.6623    0.5600    0.0000 H   0  0  0  0  0  0  0  0  0  0  0  0
   17.8154    0.7869    0.0000 H   0  0  0  0  0  0  0  0  0  0  0  0
  1 12  2  0  0  0  0
  2 13  1  0  0  0  0
  2 39  1  0  0  0  0
  3 13  2  0  0  0  0
  4 20  2  0  0  0  0
  5  6  1  0  0  0  0
  5  7  1  0  0  0  0
  5 23  1  0  0  0  0
  5 24  1  0  0  0  0
  6  8  1  0  0  0  0
  6 25  1  0  0  0  0
  6 26  1  0  0  0  0
  7  9  1  0  0  0  0
  7 27  1  0  0  0  0
  7 28  1  0  0  0  0
  8 10  1  0  0  0  0
  8 29  1  0  0  0  0
  8 30  1  0  0  0  0
  9 11  1  0  0  0  0
  9 31  1  0  0  0  0
  9 32  1  0  0  0  0
 10 12  1  0  0  0  0
 10 33  1  0  0  0  0
 10 34  1  0  0  0  0
 11 13  1  0  0  0  0
 11 35  1  0  0  0  0
 11 36  1  0  0  0  0
 12 14  1  0  0  0  0
 14 15  2  0  0  0  0
 14 37  1  0  0  0  0
 15 16  1  0  0  0  0
 15 38  1  0  0  0  0
 16 17  2  0  0  0  0
 16 40  1  0  0  0  0
 17 19  1  0  0  0  0
 17 41  1  0  0  0  0
 18 20  1  0  0  0  0
 18 22  1  0  0  0  0
 18 42  1  0  0  0  0
 18 43  1  0  0  0  0
 19 21  2  0  0  0  0
 19 44  1  0  0  0  0
 20 21  1  0  0  0  0
 21 45  1  0  0  0  0
 22 46  1  0  0  0  0
 22 47  1  0  0  0  0
 22 48  1  0  0  0  0
M  END
> <PUBCHEM_COMPOUND_CID>
18546963

> <PUBCHEM_COMPOUND_CANONICALIZED>
1

> <PUBCHEM_CACTVS_COMPLEXITY>
430

> <PUBCHEM_CACTVS_HBOND_ACCEPTOR>
4

> <PUBCHEM_CACTVS_HBOND_DONOR>
1

> <PUBCHEM_CACTVS_ROTATABLE_BOND>
13

> <PUBCHEM_CACTVS_SUBSKEYS>
AAADceB4OAAAAAAAAAAAAAAAAAAAAAAAAAAAAAAAAAAAAAAAAAAAGgAACAAACASAgAACCAAAAgCIAKDSCAAAAAAgAAAICAEAAEgIABIAAQAAQAAEgAAIgYOIyKCAAAAAAAAAAAAAAAAAAAAAAAAAAAAAAA==

> <PUBCHEM_IUPAC_OPENEYE_NAME>
(10E,12E,14E)-9,16-dioxooctadeca-10,12,14-trienoic acid

> <PUBCHEM_IUPAC_CAS_NAME>
(10E,12E,14E)-9,16-dioxooctadeca-10,12,14-trienoic acid

> <PUBCHEM_IUPAC_NAME_MARKUP>
(10<I>E</I>,12<I>E</I>,14<I>E</I>)-9,16-dioxooctadeca-10,12,14-trienoic acid

> <PUBCHEM_IUPAC_NAME>
(10E,12E,14E)-9,16-dioxooctadeca-10,12,14-trienoic acid

> <PUBCHEM_IUPAC_SYSTEMATIC_NAME>
(10E,12E,14E)-9,16-bis(oxidanylidene)octadeca-10,12,14-trienoic acid

> <PUBCHEM_IUPAC_TRADITIONAL_NAME>
(10E,12E,14E)-9,16-diketooctadeca-10,12,14-trienoic acid

> <PUBCHEM_IUPAC_INCHI>
InChI=1S/C18H26O4/c1-2-16(19)12-8-6-7-10-14-17(20)13-9-4-3-5-11-15-18(21)22/h6-8,10,12,14H,2-5,9,11,13,15H2,1H3,(H,21,22)/b7-6+,12-8+,14-10+

> <PUBCHEM_IUPAC_INCHIKEY>
PQPRTPXWQQQKJC-KDXRDGMUSA-N

> <PUBCHEM_XLOGP3_AA>
3.4

> <PUBCHEM_EXACT_MASS>
306.18310931

> <PUBCHEM_MOLECULAR_FORMULA>
C18H26O4

> <PUBCHEM_MOLECULAR_WEIGHT>
306.4

> <PUBCHEM_OPENEYE_CAN_SMILES>
CCC(=O)C=CC=CC=CC(=O)CCCCCCCC(=O)O

> <PUBCHEM_OPENEYE_ISO_SMILES>
CCC(=O)/C=C/C=C/C=C/C(=O)CCCCCCCC(=O)O

> <PUBCHEM_CACTVS_TPSA>
71.4

> <PUBCHEM_MONOISOTOPIC_WEIGHT>
306.18310931

> <PUBCHEM_TOTAL_CHARGE>
0

> <PUBCHEM_HEAVY_ATOM_COUNT>
22

> <PUBCHEM_ATOM_DEF_STEREO_COUNT>
0

> <PUBCHEM_ATOM_UDEF_STEREO_COUNT>
0

> <PUBCHEM_BOND_DEF_STEREO_COUNT>
3

> <PUBCHEM_BOND_UDEF_STEREO_COUNT>
0

> <PUBCHEM_ISOTOPIC_ATOM_COUNT>
0

> <PUBCHEM_COMPONENT_COUNT>
1

> <PUBCHEM_CACTVS_TAUTO_COUNT>
4

> <PUBCHEM_COORDINATE_TYPE>
1
5
255

$$$$
