 
  -OEChem-10192104112D

 47 46  0     1  0  0  0  0  0999 V2000
    9.4651    1.8100    0.0000 O   0  0  0  0  0  0  0  0  0  0  0  0
    8.5991    3.3100    0.0000 O   0  0  0  0  0  0  0  0  0  0  0  0
    2.5369    1.8100    0.0000 O   0  0  0  0  0  0  0  0  0  0  0  0
    3.4030    3.3100    0.0000 O   0  0  0  0  0  0  0  0  0  0  0  0
    5.1350   -2.6900    0.0000 O   0  0  0  0  0  0  0  0  0  0  0  0
    6.8671   -2.6900    0.0000 O   0  0  0  0  0  0  0  0  0  0  0  0
    7.7331    1.8100    0.0000 C   0  0  3  0  0  0  0  0  0  0  0  0
    6.8671    2.3100    0.0000 C   0  0  0  0  0  0  0  0  0  0  0  0
    7.7331    0.8100    0.0000 C   0  0  0  0  0  0  0  0  0  0  0  0
    6.0010    1.8100    0.0000 C   0  0  0  0  0  0  0  0  0  0  0  0
    5.1350    2.3100    0.0000 C   0  0  0  0  0  0  0  0  0  0  0  0
    6.8671    0.3100    0.0000 C   0  0  0  0  0  0  0  0  0  0  0  0
    4.2690    1.8100    0.0000 C   0  0  3  0  0  0  0  0  0  0  0  0
    6.8671   -0.6900    0.0000 C   0  0  0  0  0  0  0  0  0  0  0  0
    6.0010   -1.1900    0.0000 C   0  0  3  0  0  0  0  0  0  0  0  0
    4.2690    0.8100    0.0000 C   0  0  0  0  0  0  0  0  0  0  0  0
    8.5991    2.3100    0.0000 C   0  0  0  0  0  0  0  0  0  0  0  0
    3.4030    2.3100    0.0000 C   0  0  0  0  0  0  0  0  0  0  0  0
    5.1350   -0.6900    0.0000 C   0  0  0  0  0  0  0  0  0  0  0  0
    3.4030    0.3100    0.0000 C   0  0  0  0  0  0  0  0  0  0  0  0
    6.0010   -2.1900    0.0000 C   0  0  0  0  0  0  0  0  0  0  0  0
    7.7331    2.4300    0.0000 H   0  0  0  0  0  0  0  0  0  0  0  0
    7.2656    2.7849    0.0000 H   0  0  0  0  0  0  0  0  0  0  0  0
    6.4685    2.7849    0.0000 H   0  0  0  0  0  0  0  0  0  0  0  0
    7.9451    0.2274    0.0000 H   0  0  0  0  0  0  0  0  0  0  0  0
    8.3437    0.9177    0.0000 H   0  0  0  0  0  0  0  0  0  0  0  0
    5.6025    1.3350    0.0000 H   0  0  0  0  0  0  0  0  0  0  0  0
    6.3996    1.3350    0.0000 H   0  0  0  0  0  0  0  0  0  0  0  0
    5.5335    2.7849    0.0000 H   0  0  0  0  0  0  0  0  0  0  0  0
    4.7365    2.7849    0.0000 H   0  0  0  0  0  0  0  0  0  0  0  0
    6.6550    0.8926    0.0000 H   0  0  0  0  0  0  0  0  0  0  0  0
    6.2565    0.2023    0.0000 H   0  0  0  0  0  0  0  0  0  0  0  0
    4.2690    2.4300    0.0000 H   0  0  0  0  0  0  0  0  0  0  0  0
    7.0791   -1.2726    0.0000 H   0  0  0  0  0  0  0  0  0  0  0  0
    7.4776   -0.5823    0.0000 H   0  0  0  0  0  0  0  0  0  0  0  0
    5.4641   -1.5000    0.0000 H   0  0  0  0  0  0  0  0  0  0  0  0
    4.4810    0.2274    0.0000 H   0  0  0  0  0  0  0  0  0  0  0  0
    4.8796    0.9177    0.0000 H   0  0  0  0  0  0  0  0  0  0  0  0
    5.4450   -0.1531    0.0000 H   0  0  0  0  0  0  0  0  0  0  0  0
    4.5981   -0.3800    0.0000 H   0  0  0  0  0  0  0  0  0  0  0  0
    4.8250   -1.2269    0.0000 H   0  0  0  0  0  0  0  0  0  0  0  0
    3.0930    0.8469    0.0000 H   0  0  0  0  0  0  0  0  0  0  0  0
    2.8660    0.0000    0.0000 H   0  0  0  0  0  0  0  0  0  0  0  0
    3.7130   -0.2269    0.0000 H   0  0  0  0  0  0  0  0  0  0  0  0
   10.0021    2.1200    0.0000 H   0  0  0  0  0  0  0  0  0  0  0  0
    2.0000    2.1200    0.0000 H   0  0  0  0  0  0  0  0  0  0  0  0
    5.1350   -3.3100    0.0000 H   0  0  0  0  0  0  0  0  0  0  0  0
  1 17  1  0  0  0  0
  1 45  1  0  0  0  0
  2 17  2  0  0  0  0
  3 18  1  0  0  0  0
  3 46  1  0  0  0  0
  4 18  2  0  0  0  0
  5 21  1  0  0  0  0
  5 47  1  0  0  0  0
  6 21  2  0  0  0  0
  7  8  1  0  0  0  0
  7  9  1  0  0  0  0
  7 17  1  0  0  0  0
  7 22  1  0  0  0  0
  8 10  1  0  0  0  0
  8 23  1  0  0  0  0
  8 24  1  0  0  0  0
  9 12  1  0  0  0  0
  9 25  1  0  0  0  0
  9 26  1  0  0  0  0
 10 11  1  0  0  0  0
 10 27  1  0  0  0  0
 10 28  1  0  0  0  0
 11 13  1  0  0  0  0
 11 29  1  0  0  0  0
 11 30  1  0  0  0  0
 12 14  1  0  0  0  0
 12 31  1  0  0  0  0
 12 32  1  0  0  0  0
 13 16  1  0  0  0  0
 13 18  1  0  0  0  0
 13 33  1  0  0  0  0
 14 15  1  0  0  0  0
 14 34  1  0  0  0  0
 14 35  1  0  0  0  0
 15 19  1  0  0  0  0
 15 21  1  0  0  0  0
 15 36  1  0  0  0  0
 16 20  1  0  0  0  0
 16 37  1  0  0  0  0
 16 38  1  0  0  0  0
 19 39  1  0  0  0  0
 19 40  1  0  0  0  0
 19 41  1  0  0  0  0
 20 42  1  0  0  0  0
 20 43  1  0  0  0  0
 20 44  1  0  0  0  0
M  END
> <PUBCHEM_COMPOUND_CID>
71311235

> <PUBCHEM_COMPOUND_CANONICALIZED>
1

> <PUBCHEM_CACTVS_COMPLEXITY>
352

> <PUBCHEM_CACTVS_HBOND_ACCEPTOR>
6

> <PUBCHEM_CACTVS_HBOND_DONOR>
3

> <PUBCHEM_CACTVS_ROTATABLE_BOND>
12

> <PUBCHEM_CACTVS_SUBSKEYS>
AAADceBwOAAAAAAAAAAAAAAAAAAAAAAAAAAAAAAAAAAAAAAAAAAAGgAACAAADQCAgAACCAAAAgAIAACQCAAAAAAAAAAAAAEAAAAAABIAAAAAQAAEAAAAAAGIyOCOAAAAAAAAAAAAAAAAAAAAAAAAAAAAAA==

> <PUBCHEM_IUPAC_OPENEYE_NAME>
1-methylundecane-1,5,9-tricarboxylic acid

> <PUBCHEM_IUPAC_CAS_NAME>
1-methylundecane-1,5,9-tricarboxylic acid

> <PUBCHEM_IUPAC_NAME_MARKUP>
1-methylundecane-1,5,9-tricarboxylic acid

> <PUBCHEM_IUPAC_NAME>
1-methylundecane-1,5,9-tricarboxylic acid

> <PUBCHEM_IUPAC_SYSTEMATIC_NAME>
1-methylundecane-1,5,9-tricarboxylic acid

> <PUBCHEM_IUPAC_TRADITIONAL_NAME>
1-methylundecane-1,5,9-tricarboxylic acid

> <PUBCHEM_IUPAC_INCHI>
InChI=1S/C15H26O6/c1-3-11(14(18)19)7-5-9-12(15(20)21)8-4-6-10(2)13(16)17/h10-12H,3-9H2,1-2H3,(H,16,17)(H,18,19)(H,20,21)

> <PUBCHEM_IUPAC_INCHIKEY>
GKQPIGNJOPRBMF-UHFFFAOYSA-N

> <PUBCHEM_XLOGP3_AA>
2.8

> <PUBCHEM_EXACT_MASS>
302.17293854

> <PUBCHEM_MOLECULAR_FORMULA>
C15H26O6

> <PUBCHEM_MOLECULAR_WEIGHT>
302.36

> <PUBCHEM_OPENEYE_CAN_SMILES>
CCC(CCCC(CCCC(C)C(=O)O)C(=O)O)C(=O)O

> <PUBCHEM_OPENEYE_ISO_SMILES>
CCC(CCCC(CCCC(C)C(=O)O)C(=O)O)C(=O)O

> <PUBCHEM_CACTVS_TPSA>
112

> <PUBCHEM_MONOISOTOPIC_WEIGHT>
302.17293854

> <PUBCHEM_TOTAL_CHARGE>
0

> <PUBCHEM_HEAVY_ATOM_COUNT>
21

> <PUBCHEM_ATOM_DEF_STEREO_COUNT>
0

> <PUBCHEM_ATOM_UDEF_STEREO_COUNT>
3

> <PUBCHEM_BOND_DEF_STEREO_COUNT>
0

> <PUBCHEM_BOND_UDEF_STEREO_COUNT>
0

> <PUBCHEM_ISOTOPIC_ATOM_COUNT>
0

> <PUBCHEM_COMPONENT_COUNT>
1

> <PUBCHEM_CACTVS_TAUTO_COUNT>
-1

> <PUBCHEM_COORDINATE_TYPE>
1
5
255

> <PUBCHEM_BONDANNOTATIONS>
13  16  3
15  19  3
7  9  3

$$$$
