 
  -OEChem-10192104422D

 88 87  0     1  0  0  0  0  0999 V2000
    2.5369    2.6550    0.0000 O   0  0  0  0  0  0  0  0  0  0  0  0
    3.4030    1.1550    0.0000 O   0  0  0  0  0  0  0  0  0  0  0  0
    6.1350    3.6550    0.0000 O   0  0  0  0  0  0  0  0  0  0  0  0
   11.5991    0.6550    0.0000 O   0  0  0  0  0  0  0  0  0  0  0  0
   11.5991    3.6550    0.0000 O   0  0  0  0  0  0  0  0  0  0  0  0
   11.1305   -6.3450    0.0000 O   0  0  0  0  0  0  0  0  0  0  0  0
    8.8671    1.1550    0.0000 O   0  0  0  0  0  0  0  0  0  0  0  0
   11.1305   -3.3450    0.0000 O   0  0  0  0  0  0  0  0  0  0  0  0
   14.3312    1.1550    0.0000 O   0  0  0  0  0  0  0  0  0  0  0  0
   13.8626   -5.8450    0.0000 O   0  0  0  0  0  0  0  0  0  0  0  0
    8.3985   -5.8450    0.0000 O   0  0  0  0  0  0  0  0  0  0  0  0
    5.6664   -3.3450    0.0000 O   0  0  0  0  0  0  0  0  0  0  0  0
    5.1350    2.1550    0.0000 N   0  0  0  0  0  0  0  0  0  0  0  0
    2.5369    6.6550    0.0000 N   0  0  0  0  0  0  0  0  0  0  0  0
    7.8671    2.6550    0.0000 N   0  0  0  0  0  0  0  0  0  0  0  0
   13.3312    2.6550    0.0000 N   0  0  0  0  0  0  0  0  0  0  0  0
   10.5991    2.1550    0.0000 N   0  0  0  0  0  0  0  0  0  0  0  0
    9.3985   -4.3450    0.0000 N   0  0  0  0  0  0  0  0  0  0  0  0
   12.1305   -4.8450    0.0000 N   0  0  0  0  0  0  0  0  0  0  0  0
   16.0632    2.1550    0.0000 N   0  0  0  0  0  0  0  0  0  0  0  0
    6.6664   -4.8450    0.0000 N   0  0  0  0  0  0  0  0  0  0  0  0
    3.9344   -4.3450    0.0000 N   0  0  0  0  0  0  0  0  0  0  0  0
    4.2690    3.6550    0.0000 C   0  0  0  0  0  0  0  0  0  0  0  0
    3.4030    4.1550    0.0000 C   0  0  0  0  0  0  0  0  0  0  0  0
    4.2690    2.6550    0.0000 C   0  0  1  0  0  0  0  0  0  0  0  0
    3.4030    5.1550    0.0000 C   0  0  0  0  0  0  0  0  0  0  0  0
    2.5369    5.6550    0.0000 C   0  0  0  0  0  0  0  0  0  0  0  0
    3.4030    2.1550    0.0000 C   0  0  0  0  0  0  0  0  0  0  0  0
    6.1350    2.6550    0.0000 C   0  0  0  0  0  0  0  0  0  0  0  0
    7.0010    2.1550    0.0000 C   0  0  0  0  0  0  0  0  0  0  0  0
   12.4651    2.1550    0.0000 C   0  0  2  0  0  0  0  0  0  0  0  0
   10.2645   -4.8450    0.0000 C   0  0  2  0  0  0  0  0  0  0  0  0
    9.7331    2.6550    0.0000 C   0  0  0  0  0  0  0  0  0  0  0  0
   11.5991    2.6550    0.0000 C   0  0  0  0  0  0  0  0  0  0  0  0
    8.8671    2.1550    0.0000 C   0  0  0  0  0  0  0  0  0  0  0  0
   12.4651    1.1550    0.0000 C   0  0  0  0  0  0  0  0  0  0  0  0
   11.1305   -4.3450    0.0000 C   0  0  0  0  0  0  0  0  0  0  0  0
   10.2645   -5.8450    0.0000 C   0  0  0  0  0  0  0  0  0  0  0  0
   14.3312    2.1550    0.0000 C   0  0  0  0  0  0  0  0  0  0  0  0
   15.1972    2.6550    0.0000 C   0  0  0  0  0  0  0  0  0  0  0  0
   12.9965   -4.3450    0.0000 C   0  0  0  0  0  0  0  0  0  0  0  0
   13.8626   -4.8450    0.0000 C   0  0  0  0  0  0  0  0  0  0  0  0
    8.3985   -4.8450    0.0000 C   0  0  0  0  0  0  0  0  0  0  0  0
    7.5324   -4.3450    0.0000 C   0  0  0  0  0  0  0  0  0  0  0  0
    5.6664   -4.3450    0.0000 C   0  0  0  0  0  0  0  0  0  0  0  0
    4.8004   -4.8450    0.0000 C   0  0  0  0  0  0  0  0  0  0  0  0
    4.8796    3.5473    0.0000 H   0  0  0  0  0  0  0  0  0  0  0  0
    4.4810    4.2376    0.0000 H   0  0  0  0  0  0  0  0  0  0  0  0
    2.7924    4.2627    0.0000 H   0  0  0  0  0  0  0  0  0  0  0  0
    3.1909    3.5724    0.0000 H   0  0  0  0  0  0  0  0  0  0  0  0
    4.8059    2.9650    0.0000 H   0  0  0  0  0  0  0  0  0  0  0  0
    4.0135    5.0473    0.0000 H   0  0  0  0  0  0  0  0  0  0  0  0
    3.6150    5.7376    0.0000 H   0  0  0  0  0  0  0  0  0  0  0  0
    1.9264    5.7627    0.0000 H   0  0  0  0  0  0  0  0  0  0  0  0
    2.3249    5.0724    0.0000 H   0  0  0  0  0  0  0  0  0  0  0  0
    5.6720    1.8450    0.0000 H   0  0  0  0  0  0  0  0  0  0  0  0
    6.6025    1.6800    0.0000 H   0  0  0  0  0  0  0  0  0  0  0  0
    7.3996    1.6800    0.0000 H   0  0  0  0  0  0  0  0  0  0  0  0
    2.0000    6.9650    0.0000 H   0  0  0  0  0  0  0  0  0  0  0  0
    3.0739    6.9650    0.0000 H   0  0  0  0  0  0  0  0  0  0  0  0
   13.0021    1.8450    0.0000 H   0  0  0  0  0  0  0  0  0  0  0  0
    8.4040    2.9650    0.0000 H   0  0  0  0  0  0  0  0  0  0  0  0
    9.7276   -5.1550    0.0000 H   0  0  0  0  0  0  0  0  0  0  0  0
   10.1316    3.1300    0.0000 H   0  0  0  0  0  0  0  0  0  0  0  0
    9.3346    3.1300    0.0000 H   0  0  0  0  0  0  0  0  0  0  0  0
    2.0000    2.3450    0.0000 H   0  0  0  0  0  0  0  0  0  0  0  0
   12.6772    0.5724    0.0000 H   0  0  0  0  0  0  0  0  0  0  0  0
   13.0757    1.2627    0.0000 H   0  0  0  0  0  0  0  0  0  0  0  0
   13.8681    2.9650    0.0000 H   0  0  0  0  0  0  0  0  0  0  0  0
   11.1360    1.8450    0.0000 H   0  0  0  0  0  0  0  0  0  0  0  0
    9.6539   -5.7373    0.0000 H   0  0  0  0  0  0  0  0  0  0  0  0
   10.0524   -6.4276    0.0000 H   0  0  0  0  0  0  0  0  0  0  0  0
   15.5957    3.1300    0.0000 H   0  0  0  0  0  0  0  0  0  0  0  0
   14.7987    3.1300    0.0000 H   0  0  0  0  0  0  0  0  0  0  0  0
    9.9354   -4.0350    0.0000 H   0  0  0  0  0  0  0  0  0  0  0  0
   13.3951   -3.8700    0.0000 H   0  0  0  0  0  0  0  0  0  0  0  0
   12.5980   -3.8700    0.0000 H   0  0  0  0  0  0  0  0  0  0  0  0
   12.6675   -5.1550    0.0000 H   0  0  0  0  0  0  0  0  0  0  0  0
   16.6001    1.8450    0.0000 H   0  0  0  0  0  0  0  0  0  0  0  0
    7.9310   -3.8700    0.0000 H   0  0  0  0  0  0  0  0  0  0  0  0
    7.1339   -3.8700    0.0000 H   0  0  0  0  0  0  0  0  0  0  0  0
   11.5991    0.0350    0.0000 H   0  0  0  0  0  0  0  0  0  0  0  0
   11.1305   -6.9650    0.0000 H   0  0  0  0  0  0  0  0  0  0  0  0
    7.2034   -5.1550    0.0000 H   0  0  0  0  0  0  0  0  0  0  0  0
    4.4019   -5.3200    0.0000 H   0  0  0  0  0  0  0  0  0  0  0  0
    5.1989   -5.3200    0.0000 H   0  0  0  0  0  0  0  0  0  0  0  0
    3.9344   -3.7250    0.0000 H   0  0  0  0  0  0  0  0  0  0  0  0
    4.4713   -4.6550    0.0000 H   0  0  0  0  0  0  0  0  0  0  0  0
  1 28  1  0  0  0  0
  1 66  1  0  0  0  0
  2 28  2  0  0  0  0
  3 29  2  0  0  0  0
  4 36  1  0  0  0  0
  4 82  1  0  0  0  0
  5 34  2  0  0  0  0
  6 38  1  0  0  0  0
  6 83  1  0  0  0  0
  7 35  2  0  0  0  0
  8 37  2  0  0  0  0
  9 39  2  0  0  0  0
 10 42  2  0  0  0  0
 11 43  2  0  0  0  0
 12 45  2  0  0  0  0
 25 13  1  6  0  0  0
 13 29  1  0  0  0  0
 13 56  1  0  0  0  0
 14 27  1  0  0  0  0
 14 59  1  0  0  0  0
 14 60  1  0  0  0  0
 15 30  1  0  0  0  0
 15 35  1  0  0  0  0
 15 62  1  0  0  0  0
 31 16  1  1  0  0  0
 16 39  1  0  0  0  0
 16 69  1  0  0  0  0
 17 33  1  0  0  0  0
 17 34  1  0  0  0  0
 17 70  1  0  0  0  0
 32 18  1  6  0  0  0
 18 43  1  0  0  0  0
 18 75  1  0  0  0  0
 19 37  1  0  0  0  0
 19 41  1  0  0  0  0
 19 78  1  0  0  0  0
 20 40  1  0  0  0  0
 20 42  1  0  0  0  0
 20 79  1  0  0  0  0
 21 44  1  0  0  0  0
 21 45  1  0  0  0  0
 21 84  1  0  0  0  0
 22 46  1  0  0  0  0
 22 87  1  0  0  0  0
 22 88  1  0  0  0  0
 23 24  1  0  0  0  0
 23 25  1  0  0  0  0
 23 47  1  0  0  0  0
 23 48  1  0  0  0  0
 24 26  1  0  0  0  0
 24 49  1  0  0  0  0
 24 50  1  0  0  0  0
 25 28  1  0  0  0  0
 25 51  1  0  0  0  0
 26 27  1  0  0  0  0
 26 52  1  0  0  0  0
 26 53  1  0  0  0  0
 27 54  1  0  0  0  0
 27 55  1  0  0  0  0
 29 30  1  0  0  0  0
 30 57  1  0  0  0  0
 30 58  1  0  0  0  0
 31 34  1  0  0  0  0
 31 36  1  0  0  0  0
 31 61  1  0  0  0  0
 32 37  1  0  0  0  0
 32 38  1  0  0  0  0
 32 63  1  0  0  0  0
 33 35  1  0  0  0  0
 33 64  1  0  0  0  0
 33 65  1  0  0  0  0
 36 67  1  0  0  0  0
 36 68  1  0  0  0  0
 38 71  1  0  0  0  0
 38 72  1  0  0  0  0
 39 40  1  0  0  0  0
 40 73  1  0  0  0  0
 40 74  1  0  0  0  0
 41 42  1  0  0  0  0
 41 76  1  0  0  0  0
 41 77  1  0  0  0  0
 43 44  1  0  0  0  0
 44 80  1  0  0  0  0
 44 81  1  0  0  0  0
 45 46  1  0  0  0  0
 46 85  1  0  0  0  0
 46 86  1  0  0  0  0
M  END
> <PUBCHEM_COMPOUND_CID>
11686123

> <PUBCHEM_COMPOUND_CANONICALIZED>
1

> <PUBCHEM_CACTVS_COMPLEXITY>
1090

> <PUBCHEM_CACTVS_HBOND_ACCEPTOR>
14

> <PUBCHEM_CACTVS_HBOND_DONOR>
13

> <PUBCHEM_CACTVS_ROTATABLE_BOND>
23

> <PUBCHEM_CACTVS_SUBSKEYS>
AAADcfB7/AAAAAAAAAAAAAAAAAAAAAAAAAAAAAAAAAAAAAAAAAAAHgAQCAAACCjhgAYACALAAgAIAAGQGAAAAAAAAAAAAIGIAAACUBYAgCAUQAAGNgCQAAGYSAAAAAAAAAAAAAAAAAAAAAAAAAAAAAAAAA==

> <PUBCHEM_IUPAC_OPENEYE_NAME>
(2S)-6-amino-2-[[2-[[2-[[(2S)-2-[[2-[[2-[[(2S)-2-[[2-[(2-aminoacetyl)amino]acetyl]amino]-3-hydroxy-propanoyl]amino]acetyl]amino]acetyl]amino]-3-hydroxy-propanoyl]amino]acetyl]amino]acetyl]amino]hexanoic acid

> <PUBCHEM_IUPAC_CAS_NAME>
(2S)-6-amino-2-[[2-[[2-[[(2S)-2-[[2-[[2-[[(2S)-2-[[2-[(2-amino-1-oxoethyl)amino]-1-oxoethyl]amino]-3-hydroxy-1-oxopropyl]amino]-1-oxoethyl]amino]-1-oxoethyl]amino]-3-hydroxy-1-oxopropyl]amino]-1-oxoethyl]amino]-1-oxoethyl]amino]hexanoic acid

> <PUBCHEM_IUPAC_NAME_MARKUP>
(2<I>S</I>)-6-amino-2-[[2-[[2-[[(2<I>S</I>)-2-[[2-[[2-[[(2<I>S</I>)-2-[[2-[(2-aminoacetyl)amino]acetyl]amino]-3-hydroxypropanoyl]amino]acetyl]amino]acetyl]amino]-3-hydroxypropanoyl]amino]acetyl]amino]acetyl]amino]hexanoic acid

> <PUBCHEM_IUPAC_NAME>
(2S)-6-amino-2-[[2-[[2-[[(2S)-2-[[2-[[2-[[(2S)-2-[[2-[(2-aminoacetyl)amino]acetyl]amino]-3-hydroxypropanoyl]amino]acetyl]amino]acetyl]amino]-3-hydroxypropanoyl]amino]acetyl]amino]acetyl]amino]hexanoic acid

> <PUBCHEM_IUPAC_SYSTEMATIC_NAME>
(2S)-6-azanyl-2-[2-[2-[[(2S)-2-[2-[2-[[(2S)-2-[2-(2-azanylethanoylamino)ethanoylamino]-3-oxidanyl-propanoyl]amino]ethanoylamino]ethanoylamino]-3-oxidanyl-propanoyl]amino]ethanoylamino]ethanoylamino]hexanoic acid

> <PUBCHEM_IUPAC_TRADITIONAL_NAME>
(2S)-6-amino-2-[[2-[[2-[[(2S)-2-[[2-[[2-[[(2S)-2-[[2-(glycylamino)acetyl]amino]-3-hydroxy-propanoyl]amino]acetyl]amino]acetyl]amino]-3-hydroxy-propanoyl]amino]acetyl]amino]acetyl]amino]hexanoic acid

> <PUBCHEM_IUPAC_INCHI>
InChI=1S/C24H42N10O12/c25-4-2-1-3-13(24(45)46)32-19(40)9-28-17(38)6-30-23(44)15(12-36)34-21(42)10-29-18(39)7-31-22(43)14(11-35)33-20(41)8-27-16(37)5-26/h13-15,35-36H,1-12,25-26H2,(H,27,37)(H,28,38)(H,29,39)(H,30,44)(H,31,43)(H,32,40)(H,33,41)(H,34,42)(H,45,46)/t13-,14-,15-/m0/s1

> <PUBCHEM_IUPAC_INCHIKEY>
PWYWTDAQCBWZLB-KKUMJFAQSA-N

> <PUBCHEM_XLOGP3_AA>
-9.8

> <PUBCHEM_EXACT_MASS>
662.29836681

> <PUBCHEM_MOLECULAR_FORMULA>
C24H42N10O12

> <PUBCHEM_MOLECULAR_WEIGHT>
662.7

> <PUBCHEM_OPENEYE_CAN_SMILES>
C(CCN)CC(C(=O)O)NC(=O)CNC(=O)CNC(=O)C(CO)NC(=O)CNC(=O)CNC(=O)C(CO)NC(=O)CNC(=O)CN

> <PUBCHEM_OPENEYE_ISO_SMILES>
C(CCN)C[C@@H](C(=O)O)NC(=O)CNC(=O)CNC(=O)[C@H](CO)NC(=O)CNC(=O)CNC(=O)[C@H](CO)NC(=O)CNC(=O)CN

> <PUBCHEM_CACTVS_TPSA>
363

> <PUBCHEM_MONOISOTOPIC_WEIGHT>
662.29836681

> <PUBCHEM_TOTAL_CHARGE>
0

> <PUBCHEM_HEAVY_ATOM_COUNT>
46

> <PUBCHEM_ATOM_DEF_STEREO_COUNT>
3

> <PUBCHEM_ATOM_UDEF_STEREO_COUNT>
0

> <PUBCHEM_BOND_DEF_STEREO_COUNT>
0

> <PUBCHEM_BOND_UDEF_STEREO_COUNT>
0

> <PUBCHEM_ISOTOPIC_ATOM_COUNT>
0

> <PUBCHEM_COMPONENT_COUNT>
1

> <PUBCHEM_CACTVS_TAUTO_COUNT>
-1

> <PUBCHEM_COORDINATE_TYPE>
1
5
255

> <PUBCHEM_BONDANNOTATIONS>
25  13  6
31  16  5
32  18  6

$$$$
