 
  -OEChem-10192104092D

 22 21  0     1  0  0  0  0  0999 V2000
    3.2320    0.6160    0.0000 O   0  0  0  0  0  0  0  0  0  0  0  0
    6.3301    0.2500    0.0000 O   0  5  0  0  0  0  0  0  0  0  0  0
    5.4641    1.7500    0.0000 O   0  0  0  0  0  0  0  0  0  0  0  0
    2.0000   -0.2500    0.0000 O   0  5  0  0  0  0  0  0  0  0  0  0
    2.8660   -1.7500    0.0000 O   0  0  0  0  0  0  0  0  0  0  0  0
    4.5981    0.2500    0.0000 C   0  0  0  0  0  0  0  0  0  0  0  0
    3.7320   -0.2500    0.0000 C   0  0  3  0  0  0  0  0  0  0  0  0
    4.0981    1.1160    0.0000 C   0  0  0  0  0  0  0  0  0  0  0  0
    5.0981   -0.6160    0.0000 C   0  0  0  0  0  0  0  0  0  0  0  0
    4.2320   -1.1160    0.0000 C   0  0  0  0  0  0  0  0  0  0  0  0
    5.4641    0.7500    0.0000 C   0  0  0  0  0  0  0  0  0  0  0  0
    2.8660   -0.7500    0.0000 C   0  0  0  0  0  0  0  0  0  0  0  0
    4.6350    1.4260    0.0000 H   0  0  0  0  0  0  0  0  0  0  0  0
    3.7881    1.6530    0.0000 H   0  0  0  0  0  0  0  0  0  0  0  0
    3.5611    0.8060    0.0000 H   0  0  0  0  0  0  0  0  0  0  0  0
    4.5611   -0.9260    0.0000 H   0  0  0  0  0  0  0  0  0  0  0  0
    5.4081   -1.1530    0.0000 H   0  0  0  0  0  0  0  0  0  0  0  0
    5.6350   -0.3060    0.0000 H   0  0  0  0  0  0  0  0  0  0  0  0
    3.6951   -1.4260    0.0000 H   0  0  0  0  0  0  0  0  0  0  0  0
    4.5420   -1.6530    0.0000 H   0  0  0  0  0  0  0  0  0  0  0  0
    4.7690   -0.8060    0.0000 H   0  0  0  0  0  0  0  0  0  0  0  0
    2.6120    0.6160    0.0000 H   0  0  0  0  0  0  0  0  0  0  0  0
  1  7  1  0  0  0  0
  1 22  1  0  0  0  0
  2 11  1  0  0  0  0
  3 11  2  0  0  0  0
  4 12  1  0  0  0  0
  5 12  2  0  0  0  0
  6  7  1  0  0  0  0
  6  8  1  0  0  0  0
  6  9  1  0  0  0  0
  6 11  1  0  0  0  0
  7 10  1  0  0  0  0
  7 12  1  0  0  0  0
  8 13  1  0  0  0  0
  8 14  1  0  0  0  0
  8 15  1  0  0  0  0
  9 16  1  0  0  0  0
  9 17  1  0  0  0  0
  9 18  1  0  0  0  0
 10 19  1  0  0  0  0
 10 20  1  0  0  0  0
 10 21  1  0  0  0  0
M  CHG  2   2  -1   4  -1
M  END
> <PUBCHEM_COMPOUND_CID>
18967989

> <PUBCHEM_COMPOUND_CANONICALIZED>
1

> <PUBCHEM_CACTVS_COMPLEXITY>
209

> <PUBCHEM_CACTVS_HBOND_ACCEPTOR>
5

> <PUBCHEM_CACTVS_HBOND_DONOR>
1

> <PUBCHEM_CACTVS_ROTATABLE_BOND>
1

> <PUBCHEM_CACTVS_SUBSKEYS>
AAADccBgOAAAAAAAAAAAAAAAAAAAAAAAAAAAAAAAAAAAAAAAAAAAGgAACAAADkSAgAACCAAAAgAIAACQCAIAAAAAAAAAAAFAAAABABQAAAAAQAAFIAABAABDAAAJgAAAAAAAAAAAAAAAAAAAAAAAAAAAAA==

> <PUBCHEM_IUPAC_OPENEYE_NAME>
2-hydroxy-2,3,3-trimethyl-butanedioate

> <PUBCHEM_IUPAC_CAS_NAME>
2-hydroxy-2,3,3-trimethylbutanedioate

> <PUBCHEM_IUPAC_NAME_MARKUP>
2-hydroxy-2,3,3-trimethylbutanedioate

> <PUBCHEM_IUPAC_NAME>
2-hydroxy-2,3,3-trimethylbutanedioate

> <PUBCHEM_IUPAC_SYSTEMATIC_NAME>
2,2,3-trimethyl-3-oxidanyl-butanedioate

> <PUBCHEM_IUPAC_TRADITIONAL_NAME>
2-hydroxy-2,3,3-trimethyl-succinate

> <PUBCHEM_IUPAC_INCHI>
InChI=1S/C7H12O5/c1-6(2,4(8)9)7(3,12)5(10)11/h12H,1-3H3,(H,8,9)(H,10,11)/p-2

> <PUBCHEM_IUPAC_INCHIKEY>
QKBMDPMOFLQDLM-UHFFFAOYSA-L

> <PUBCHEM_XLOGP3_AA>
1.1

> <PUBCHEM_EXACT_MASS>
174.05282342

> <PUBCHEM_MOLECULAR_FORMULA>
C7H10O5-2

> <PUBCHEM_MOLECULAR_WEIGHT>
174.15

> <PUBCHEM_OPENEYE_CAN_SMILES>
CC(C)(C(=O)[O-])C(C)(C(=O)[O-])O

> <PUBCHEM_OPENEYE_ISO_SMILES>
CC(C)(C(=O)[O-])C(C)(C(=O)[O-])O

> <PUBCHEM_CACTVS_TPSA>
101

> <PUBCHEM_MONOISOTOPIC_WEIGHT>
174.05282342

> <PUBCHEM_TOTAL_CHARGE>
-2

> <PUBCHEM_HEAVY_ATOM_COUNT>
12

> <PUBCHEM_ATOM_DEF_STEREO_COUNT>
0

> <PUBCHEM_ATOM_UDEF_STEREO_COUNT>
1

> <PUBCHEM_BOND_DEF_STEREO_COUNT>
0

> <PUBCHEM_BOND_UDEF_STEREO_COUNT>
0

> <PUBCHEM_ISOTOPIC_ATOM_COUNT>
0

> <PUBCHEM_COMPONENT_COUNT>
1

> <PUBCHEM_CACTVS_TAUTO_COUNT>
-1

> <PUBCHEM_COORDINATE_TYPE>
1
5
255

> <PUBCHEM_BONDANNOTATIONS>
7  1  3

$$$$
