 
  -OEChem-10192104182D

 48 50  0     1  0  0  0  0  0999 V2000
    9.5945    1.8488    0.0000 O   0  0  0  0  0  0  0  0  0  0  0  0
    7.8167    1.8592    0.0000 O   0  0  0  0  0  0  0  0  0  0  0  0
   13.9304    0.3655    0.0000 O   0  0  0  0  0  0  0  0  0  0  0  0
    9.5984   -1.1995    0.0000 O   0  0  0  0  0  0  0  0  0  0  0  0
    6.0682    1.8246    0.0000 O   0  0  0  0  0  0  0  0  0  0  0  0
    6.0682   -2.1754    0.0000 O   0  0  0  0  0  0  0  0  0  0  0  0
    4.3198    1.8592    0.0000 O   0  0  0  0  0  0  0  0  0  0  0  0
    2.5381   -1.1995    0.0000 O   0  0  0  0  0  0  0  0  0  0  0  0
    9.5984    0.8488    0.0000 C   0  0  3  0  0  0  0  0  0  0  0  0
   10.4663    0.3521    0.0000 C   0  0  0  0  0  0  0  0  0  0  0  0
   11.3304    0.8554    0.0000 C   0  0  0  0  0  0  0  0  0  0  0  0
    8.7343    0.3454    0.0000 C   0  0  0  0  0  0  0  0  0  0  0  0
   12.1984    0.3588    0.0000 C   0  0  0  0  0  0  0  0  0  0  0  0
    6.9343    0.3246    0.0000 C   0  0  0  0  0  0  0  0  0  0  0  0
    7.8282    0.8593    0.0000 C   0  0  0  0  0  0  0  0  0  0  0  0
    6.9343   -0.6754    0.0000 C   0  0  0  0  0  0  0  0  0  0  0  0
   13.0625    0.8621    0.0000 C   0  0  3  0  0  0  0  0  0  0  0  0
    8.7343   -0.6962    0.0000 C   0  0  0  0  0  0  0  0  0  0  0  0
    7.8282   -1.2100    0.0000 C   0  0  0  0  0  0  0  0  0  0  0  0
    6.0682    0.8246    0.0000 C   0  0  0  0  0  0  0  0  0  0  0  0
    5.2022    0.3246    0.0000 C   0  0  0  0  0  0  0  0  0  0  0  0
    5.2022   -0.6754    0.0000 C   0  0  0  0  0  0  0  0  0  0  0  0
    6.0682   -1.1754    0.0000 C   0  0  0  0  0  0  0  0  0  0  0  0
   13.0586    1.8621    0.0000 C   0  0  0  0  0  0  0  0  0  0  0  0
    4.3083    0.8593    0.0000 C   0  0  0  0  0  0  0  0  0  0  0  0
    4.3083   -1.2100    0.0000 C   0  0  0  0  0  0  0  0  0  0  0  0
    3.4022   -0.6962    0.0000 C   0  0  0  0  0  0  0  0  0  0  0  0
    3.4022    0.3454    0.0000 C   0  0  0  0  0  0  0  0  0  0  0  0
    9.0602    1.1567    0.0000 H   0  0  0  0  0  0  0  0  0  0  0  0
   10.0696   -0.1244    0.0000 H   0  0  0  0  0  0  0  0  0  0  0  0
   10.8667   -0.1213    0.0000 H   0  0  0  0  0  0  0  0  0  0  0  0
   11.7271    1.3319    0.0000 H   0  0  0  0  0  0  0  0  0  0  0  0
   10.9301    1.3288    0.0000 H   0  0  0  0  0  0  0  0  0  0  0  0
   11.8017   -0.1177    0.0000 H   0  0  0  0  0  0  0  0  0  0  0  0
   12.5987   -0.1146    0.0000 H   0  0  0  0  0  0  0  0  0  0  0  0
   13.0648    0.2421    0.0000 H   0  0  0  0  0  0  0  0  0  0  0  0
    7.8210   -1.8300    0.0000 H   0  0  0  0  0  0  0  0  0  0  0  0
   10.1303    2.1608    0.0000 H   0  0  0  0  0  0  0  0  0  0  0  0
   13.6786    1.8645    0.0000 H   0  0  0  0  0  0  0  0  0  0  0  0
   13.0562    2.4821    0.0000 H   0  0  0  0  0  0  0  0  0  0  0  0
   12.4386    1.8597    0.0000 H   0  0  0  0  0  0  0  0  0  0  0  0
    4.3154   -1.8300    0.0000 H   0  0  0  0  0  0  0  0  0  0  0  0
    8.3500    2.1754    0.0000 H   0  0  0  0  0  0  0  0  0  0  0  0
    2.8665    0.6575    0.0000 H   0  0  0  0  0  0  0  0  0  0  0  0
   14.4661    0.6775    0.0000 H   0  0  0  0  0  0  0  0  0  0  0  0
    9.5960   -1.8195    0.0000 H   0  0  0  0  0  0  0  0  0  0  0  0
    3.7865    2.1754    0.0000 H   0  0  0  0  0  0  0  0  0  0  0  0
    2.0000   -0.8916    0.0000 H   0  0  0  0  0  0  0  0  0  0  0  0
  1  9  1  0  0  0  0
  1 38  1  0  0  0  0
  2 15  1  0  0  0  0
  2 43  1  0  0  0  0
  3 17  1  0  0  0  0
  3 45  1  0  0  0  0
  4 18  1  0  0  0  0
  4 46  1  0  0  0  0
  5 20  2  0  0  0  0
  6 23  2  0  0  0  0
  7 25  1  0  0  0  0
  7 47  1  0  0  0  0
  8 27  1  0  0  0  0
  8 48  1  0  0  0  0
  9 10  1  0  0  0  0
  9 12  1  0  0  0  0
  9 29  1  0  0  0  0
 10 11  1  0  0  0  0
 10 30  1  0  0  0  0
 10 31  1  0  0  0  0
 11 13  1  0  0  0  0
 11 32  1  0  0  0  0
 11 33  1  0  0  0  0
 12 15  1  0  0  0  0
 12 18  2  0  0  0  0
 13 17  1  0  0  0  0
 13 34  1  0  0  0  0
 13 35  1  0  0  0  0
 14 15  2  0  0  0  0
 14 16  1  0  0  0  0
 14 20  1  0  0  0  0
 16 19  2  0  0  0  0
 16 23  1  0  0  0  0
 17 24  1  0  0  0  0
 17 36  1  0  0  0  0
 18 19  1  0  0  0  0
 19 37  1  0  0  0  0
 20 21  1  0  0  0  0
 21 22  2  0  0  0  0
 21 25  1  0  0  0  0
 22 23  1  0  0  0  0
 22 26  1  0  0  0  0
 24 39  1  0  0  0  0
 24 40  1  0  0  0  0
 24 41  1  0  0  0  0
 25 28  2  0  0  0  0
 26 27  2  0  0  0  0
 26 42  1  0  0  0  0
 27 28  1  0  0  0  0
 28 44  1  0  0  0  0
M  END
> <PUBCHEM_COMPOUND_CID>
126118

> <PUBCHEM_COMPOUND_CANONICALIZED>
1

> <PUBCHEM_CACTVS_COMPLEXITY>
595

> <PUBCHEM_CACTVS_HBOND_ACCEPTOR>
8

> <PUBCHEM_CACTVS_HBOND_DONOR>
6

> <PUBCHEM_CACTVS_ROTATABLE_BOND>
5

> <PUBCHEM_CACTVS_SUBSKEYS>
AAADceB4PAAAAAAAAAAAAAAAAAAAAAAAAAAwYMAAAAAAAADBQAAAGgAACAAADBSgmAIyBoAAAgCIAqBSAAACAAAkIAAAiAEGCMgINzaCFRKAcUAl4BUImYeL7PTO4AADCAAYAADAAAYQADAAAAAAAAAAAA==

> <PUBCHEM_IUPAC_OPENEYE_NAME>
2-(1,5-dihydroxyhexyl)-1,3,6,8-tetrahydroxy-anthracene-9,10-dione

> <PUBCHEM_IUPAC_CAS_NAME>
2-(1,5-dihydroxyhexyl)-1,3,6,8-tetrahydroxyanthracene-9,10-dione

> <PUBCHEM_IUPAC_NAME_MARKUP>
2-(1,5-dihydroxyhexyl)-1,3,6,8-tetrahydroxyanthracene-9,10-dione

> <PUBCHEM_IUPAC_NAME>
2-(1,5-dihydroxyhexyl)-1,3,6,8-tetrahydroxyanthracene-9,10-dione

> <PUBCHEM_IUPAC_SYSTEMATIC_NAME>
2-[1,5-bis(oxidanyl)hexyl]-1,3,6,8-tetrakis(oxidanyl)anthracene-9,10-dione

> <PUBCHEM_IUPAC_TRADITIONAL_NAME>
2-(1,5-dihydroxyhexyl)-1,3,6,8-tetrahydroxy-9,10-anthraquinone

> <PUBCHEM_IUPAC_INCHI>
InChI=1S/C20H20O8/c1-8(21)3-2-4-12(23)17-14(25)7-11-16(20(17)28)19(27)15-10(18(11)26)5-9(22)6-13(15)24/h5-8,12,21-25,28H,2-4H2,1H3

> <PUBCHEM_IUPAC_INCHIKEY>
GGNDESPZSKTNHV-UHFFFAOYSA-N

> <PUBCHEM_XLOGP3_AA>
2.5

> <PUBCHEM_EXACT_MASS>
388.11581759

> <PUBCHEM_MOLECULAR_FORMULA>
C20H20O8

> <PUBCHEM_MOLECULAR_WEIGHT>
388.4

> <PUBCHEM_OPENEYE_CAN_SMILES>
CC(CCCC(C1=C(C=C2C(=C1O)C(=O)C3=C(C2=O)C=C(C=C3O)O)O)O)O

> <PUBCHEM_OPENEYE_ISO_SMILES>
CC(CCCC(C1=C(C=C2C(=C1O)C(=O)C3=C(C2=O)C=C(C=C3O)O)O)O)O

> <PUBCHEM_CACTVS_TPSA>
156

> <PUBCHEM_MONOISOTOPIC_WEIGHT>
388.11581759

> <PUBCHEM_TOTAL_CHARGE>
0

> <PUBCHEM_HEAVY_ATOM_COUNT>
28

> <PUBCHEM_ATOM_DEF_STEREO_COUNT>
0

> <PUBCHEM_ATOM_UDEF_STEREO_COUNT>
2

> <PUBCHEM_BOND_DEF_STEREO_COUNT>
0

> <PUBCHEM_BOND_UDEF_STEREO_COUNT>
0

> <PUBCHEM_ISOTOPIC_ATOM_COUNT>
0

> <PUBCHEM_COMPONENT_COUNT>
1

> <PUBCHEM_CACTVS_TAUTO_COUNT>
135

> <PUBCHEM_COORDINATE_TYPE>
1
5
255

> <PUBCHEM_BONDANNOTATIONS>
9  1  3
12  15  8
12  18  8
14  15  8
14  16  8
16  19  8
18  19  8
21  22  8
21  25  8
22  26  8
25  28  8
26  27  8
27  28  8
17  3  3

$$$$
