 
  -OEChem-10192103412D

 33 33  0     1  0  0  0  0  0999 V2000
    2.0000   -2.8194    0.0000 O   0  0  0  0  0  0  0  0  0  0  0  0
    7.2242    3.4594    0.0000 O   0  0  0  0  0  0  0  0  0  0  0  0
    5.4921    3.4594    0.0000 O   0  0  0  0  0  0  0  0  0  0  0  0
    3.7601   -2.5406    0.0000 C   0  0  3  0  0  0  0  0  0  0  0  0
    4.5691   -3.1284    0.0000 C   0  0  0  0  0  0  0  0  0  0  0  0
    4.2601   -4.0794    0.0000 C   0  0  0  0  0  0  0  0  0  0  0  0
    3.2601   -4.0794    0.0000 C   0  0  0  0  0  0  0  0  0  0  0  0
    2.9511   -3.1284    0.0000 C   0  0  0  0  0  0  0  0  0  0  0  0
    3.7601   -1.5406    0.0000 C   0  0  0  0  0  0  0  0  0  0  0  0
    4.6261   -0.0406    0.0000 C   0  0  0  0  0  0  0  0  0  0  0  0
    4.6261   -1.0406    0.0000 C   0  0  0  0  0  0  0  0  0  0  0  0
    5.4921    0.4594    0.0000 C   0  0  0  0  0  0  0  0  0  0  0  0
    5.4921    1.4594    0.0000 C   0  0  0  0  0  0  0  0  0  0  0  0
    6.3582    1.9594    0.0000 C   0  0  0  0  0  0  0  0  0  0  0  0
    6.3582    2.9594    0.0000 C   0  0  0  0  0  0  0  0  0  0  0  0
    4.3125   -2.2591    0.0000 H   0  0  0  0  0  0  0  0  0  0  0  0
    5.1355   -3.3805    0.0000 H   0  0  0  0  0  0  0  0  0  0  0  0
    4.8791   -2.5914    0.0000 H   0  0  0  0  0  0  0  0  0  0  0  0
    4.1953   -4.6960    0.0000 H   0  0  0  0  0  0  0  0  0  0  0  0
    4.8665   -4.2083    0.0000 H   0  0  0  0  0  0  0  0  0  0  0  0
    2.6536   -4.2083    0.0000 H   0  0  0  0  0  0  0  0  0  0  0  0
    3.3249   -4.6960    0.0000 H   0  0  0  0  0  0  0  0  0  0  0  0
    3.2231   -1.2306    0.0000 H   0  0  0  0  0  0  0  0  0  0  0  0
    4.4140    0.5420    0.0000 H   0  0  0  0  0  0  0  0  0  0  0  0
    4.0155   -0.1482    0.0000 H   0  0  0  0  0  0  0  0  0  0  0  0
    5.1630   -1.3506    0.0000 H   0  0  0  0  0  0  0  0  0  0  0  0
    5.7042   -0.1232    0.0000 H   0  0  0  0  0  0  0  0  0  0  0  0
    6.1027    0.5671    0.0000 H   0  0  0  0  0  0  0  0  0  0  0  0
    5.2801    2.0420    0.0000 H   0  0  0  0  0  0  0  0  0  0  0  0
    4.8815    1.3518    0.0000 H   0  0  0  0  0  0  0  0  0  0  0  0
    6.5702    1.3768    0.0000 H   0  0  0  0  0  0  0  0  0  0  0  0
    6.9687    2.0671    0.0000 H   0  0  0  0  0  0  0  0  0  0  0  0
    7.2242    4.0794    0.0000 H   0  0  0  0  0  0  0  0  0  0  0  0
  1  8  2  0  0  0  0
  2 15  1  0  0  0  0
  2 33  1  0  0  0  0
  3 15  2  0  0  0  0
  4  5  1  0  0  0  0
  4  8  1  0  0  0  0
  4  9  1  0  0  0  0
  4 16  1  0  0  0  0
  5  6  1  0  0  0  0
  5 17  1  0  0  0  0
  5 18  1  0  0  0  0
  6  7  1  0  0  0  0
  6 19  1  0  0  0  0
  6 20  1  0  0  0  0
  7  8  1  0  0  0  0
  7 21  1  0  0  0  0
  7 22  1  0  0  0  0
  9 11  2  3  0  0  0
  9 23  1  0  0  0  0
 10 11  1  0  0  0  0
 10 12  1  0  0  0  0
 10 24  1  0  0  0  0
 10 25  1  0  0  0  0
 11 26  1  0  0  0  0
 12 13  1  0  0  0  0
 12 27  1  0  0  0  0
 12 28  1  0  0  0  0
 13 14  1  0  0  0  0
 13 29  1  0  0  0  0
 13 30  1  0  0  0  0
 14 15  1  0  0  0  0
 14 31  1  0  0  0  0
 14 32  1  0  0  0  0
M  END
> <PUBCHEM_COMPOUND_CID>
57098419

> <PUBCHEM_COMPOUND_CANONICALIZED>
1

> <PUBCHEM_CACTVS_COMPLEXITY>
256

> <PUBCHEM_CACTVS_HBOND_ACCEPTOR>
3

> <PUBCHEM_CACTVS_HBOND_DONOR>
1

> <PUBCHEM_CACTVS_ROTATABLE_BOND>
6

> <PUBCHEM_CACTVS_SUBSKEYS>
AAADceBwMAAAAAAAAAAAAAAAAAAAAYAAAAAAAAAAAAAAAAAAAAAAGgAACAAADQSAgAAACAAAAgCIAKDSCAAAAAAgAAAICAEAAAgAABIAAQAAQAAEgAAIAAOISAAOAAAAAAAAAAAAAAAAAAAAAAAAAAAAAA==

> <PUBCHEM_IUPAC_OPENEYE_NAME>
7-(2-oxocyclopentyl)hept-6-enoic acid

> <PUBCHEM_IUPAC_CAS_NAME>
7-(2-oxocyclopentyl)-6-heptenoic acid

> <PUBCHEM_IUPAC_NAME_MARKUP>
7-(2-oxocyclopentyl)hept-6-enoic acid

> <PUBCHEM_IUPAC_NAME>
7-(2-oxocyclopentyl)hept-6-enoic acid

> <PUBCHEM_IUPAC_SYSTEMATIC_NAME>
7-(2-oxidanylidenecyclopentyl)hept-6-enoic acid

> <PUBCHEM_IUPAC_TRADITIONAL_NAME>
7-(2-ketocyclopentyl)hept-6-enoic acid

> <PUBCHEM_IUPAC_INCHI>
InChI=1S/C12H18O3/c13-11-8-5-7-10(11)6-3-1-2-4-9-12(14)15/h3,6,10H,1-2,4-5,7-9H2,(H,14,15)

> <PUBCHEM_IUPAC_INCHIKEY>
UUQZJCQCMOFQBO-UHFFFAOYSA-N

> <PUBCHEM_XLOGP3_AA>
1.8

> <PUBCHEM_EXACT_MASS>
210.125594432

> <PUBCHEM_MOLECULAR_FORMULA>
C12H18O3

> <PUBCHEM_MOLECULAR_WEIGHT>
210.27

> <PUBCHEM_OPENEYE_CAN_SMILES>
C1CC(C(=O)C1)C=CCCCCC(=O)O

> <PUBCHEM_OPENEYE_ISO_SMILES>
C1CC(C(=O)C1)C=CCCCCC(=O)O

> <PUBCHEM_CACTVS_TPSA>
54.4

> <PUBCHEM_MONOISOTOPIC_WEIGHT>
210.125594432

> <PUBCHEM_TOTAL_CHARGE>
0

> <PUBCHEM_HEAVY_ATOM_COUNT>
15

> <PUBCHEM_ATOM_DEF_STEREO_COUNT>
0

> <PUBCHEM_ATOM_UDEF_STEREO_COUNT>
1

> <PUBCHEM_BOND_DEF_STEREO_COUNT>
0

> <PUBCHEM_BOND_UDEF_STEREO_COUNT>
1

> <PUBCHEM_ISOTOPIC_ATOM_COUNT>
0

> <PUBCHEM_COMPONENT_COUNT>
1

> <PUBCHEM_CACTVS_TAUTO_COUNT>
-1

> <PUBCHEM_COORDINATE_TYPE>
1
5
255

> <PUBCHEM_BONDANNOTATIONS>
4  9  3
9  11  1

$$$$
