 
  -OEChem-10192104182D

 46 47  0     1  0  0  0  0  0999 V2000
    6.8671   -0.3450    0.0000 O   0  0  0  0  0  0  0  0  0  0  0  0
    6.0010    2.1550    0.0000 O   0  0  0  0  0  0  0  0  0  0  0  0
    5.1350   -0.3450    0.0000 O   0  0  0  0  0  0  0  0  0  0  0  0
    8.5991    0.6550    0.0000 O   0  0  0  0  0  0  0  0  0  0  0  0
    8.5991    2.6550    0.0000 O   0  0  0  0  0  0  0  0  0  0  0  0
    6.8671   -2.3450    0.0000 O   0  0  0  0  0  0  0  0  0  0  0  0
    5.1350   -3.3450    0.0000 O   0  0  0  0  0  0  0  0  0  0  0  0
    3.4030   -2.3450    0.0000 O   0  0  0  0  0  0  0  0  0  0  0  0
    4.2690    1.1550    0.0000 O   0  0  0  0  0  0  0  0  0  0  0  0
    2.5369   -0.8450    0.0000 O   0  0  0  0  0  0  0  0  0  0  0  0
    3.4030    0.6550    0.0000 O   0  0  0  0  0  0  0  0  0  0  0  0
    6.8671    0.6550    0.0000 C   0  0  3  0  0  0  0  0  0  0  0  0
    7.7331    1.1550    0.0000 C   0  0  3  0  0  0  0  0  0  0  0  0
    6.0010    1.1550    0.0000 C   0  0  3  0  0  0  0  0  0  0  0  0
    7.7331    2.1550    0.0000 C   0  0  3  0  0  0  0  0  0  0  0  0
    6.0010   -0.8450    0.0000 C   0  0  3  0  0  0  0  0  0  0  0  0
    6.8671    2.6550    0.0000 C   0  0  3  0  0  0  0  0  0  0  0  0
    6.0010   -1.8450    0.0000 C   0  0  3  0  0  0  0  0  0  0  0  0
    5.1350   -2.3450    0.0000 C   0  0  3  0  0  0  0  0  0  0  0  0
    4.2690   -1.8450    0.0000 C   0  0  3  0  0  0  0  0  0  0  0  0
    4.2690   -0.8450    0.0000 C   0  0  3  0  0  0  0  0  0  0  0  0
    5.1350    0.6550    0.0000 C   0  0  0  0  0  0  0  0  0  0  0  0
    6.8671    3.6550    0.0000 C   0  0  0  0  0  0  0  0  0  0  0  0
    3.4030   -0.3450    0.0000 C   0  0  0  0  0  0  0  0  0  0  0  0
    7.4040    0.3450    0.0000 H   0  0  0  0  0  0  0  0  0  0  0  0
    7.7331    0.5350    0.0000 H   0  0  0  0  0  0  0  0  0  0  0  0
    5.4641    1.4650    0.0000 H   0  0  0  0  0  0  0  0  0  0  0  0
    8.2700    1.8450    0.0000 H   0  0  0  0  0  0  0  0  0  0  0  0
    6.0010   -0.2250    0.0000 H   0  0  0  0  0  0  0  0  0  0  0  0
    6.3301    2.9650    0.0000 H   0  0  0  0  0  0  0  0  0  0  0  0
    6.0010   -2.4650    0.0000 H   0  0  0  0  0  0  0  0  0  0  0  0
    4.5981   -2.6550    0.0000 H   0  0  0  0  0  0  0  0  0  0  0  0
    3.7320   -1.5350    0.0000 H   0  0  0  0  0  0  0  0  0  0  0  0
    4.2690   -0.2250    0.0000 H   0  0  0  0  0  0  0  0  0  0  0  0
    4.7365    0.1801    0.0000 H   0  0  0  0  0  0  0  0  0  0  0  0
    5.5335    0.1801    0.0000 H   0  0  0  0  0  0  0  0  0  0  0  0
    7.4871    3.6550    0.0000 H   0  0  0  0  0  0  0  0  0  0  0  0
    6.8671    4.2750    0.0000 H   0  0  0  0  0  0  0  0  0  0  0  0
    6.2471    3.6550    0.0000 H   0  0  0  0  0  0  0  0  0  0  0  0
    9.1360    0.9650    0.0000 H   0  0  0  0  0  0  0  0  0  0  0  0
    8.5991    3.2750    0.0000 H   0  0  0  0  0  0  0  0  0  0  0  0
    7.4040   -2.0350    0.0000 H   0  0  0  0  0  0  0  0  0  0  0  0
    5.6720   -3.6550    0.0000 H   0  0  0  0  0  0  0  0  0  0  0  0
    3.4030   -2.9650    0.0000 H   0  0  0  0  0  0  0  0  0  0  0  0
    4.2690    1.7750    0.0000 H   0  0  0  0  0  0  0  0  0  0  0  0
    2.0000   -0.5350    0.0000 H   0  0  0  0  0  0  0  0  0  0  0  0
  1 12  1  0  0  0  0
  1 16  1  0  0  0  0
  2 14  1  0  0  0  0
  2 17  1  0  0  0  0
  3 16  1  0  0  0  0
  3 21  1  0  0  0  0
  4 13  1  0  0  0  0
  4 40  1  0  0  0  0
  5 15  1  0  0  0  0
  5 41  1  0  0  0  0
  6 18  1  0  0  0  0
  6 42  1  0  0  0  0
  7 19  1  0  0  0  0
  7 43  1  0  0  0  0
  8 20  1  0  0  0  0
  8 44  1  0  0  0  0
  9 22  1  0  0  0  0
  9 45  1  0  0  0  0
 10 24  1  0  0  0  0
 10 46  1  0  0  0  0
 11 24  2  0  0  0  0
 12 13  1  0  0  0  0
 12 14  1  0  0  0  0
 12 25  1  0  0  0  0
 13 15  1  0  0  0  0
 13 26  1  0  0  0  0
 14 22  1  0  0  0  0
 14 27  1  0  0  0  0
 15 17  1  0  0  0  0
 15 28  1  0  0  0  0
 16 18  1  0  0  0  0
 16 29  1  0  0  0  0
 17 23  1  0  0  0  0
 17 30  1  0  0  0  0
 18 19  1  0  0  0  0
 18 31  1  0  0  0  0
 19 20  1  0  0  0  0
 19 32  1  0  0  0  0
 20 21  1  0  0  0  0
 20 33  1  0  0  0  0
 21 24  1  0  0  0  0
 21 34  1  0  0  0  0
 22 35  1  0  0  0  0
 22 36  1  0  0  0  0
 23 37  1  0  0  0  0
 23 38  1  0  0  0  0
 23 39  1  0  0  0  0
M  END
> <PUBCHEM_COMPOUND_CID>
20675307

> <PUBCHEM_COMPOUND_CANONICALIZED>
1

> <PUBCHEM_CACTVS_COMPLEXITY>
446

> <PUBCHEM_CACTVS_HBOND_ACCEPTOR>
11

> <PUBCHEM_CACTVS_HBOND_DONOR>
7

> <PUBCHEM_CACTVS_ROTATABLE_BOND>
4

> <PUBCHEM_CACTVS_SUBSKEYS>
AAADceBwPAAAAAAAAAAAAAAAAAAAAAAAAAAkSAAAAAAAAAAAAAAAGgAACAAACBSwgAMCCAAABgAIAACQCAIAAAAAAAAAAAFAAAAREBYAAAQiQAAFIAAHAAHK7CxAAAAAAAAAAAAAAAAAAAAAAAAAAAAAAA==

> <PUBCHEM_IUPAC_OPENEYE_NAME>
6-[4,5-dihydroxy-2-(hydroxymethyl)-6-methyl-tetrahydropyran-3-yl]oxy-3,4,5-trihydroxy-tetrahydropyran-2-carboxylic acid

> <PUBCHEM_IUPAC_CAS_NAME>
6-[[4,5-dihydroxy-2-(hydroxymethyl)-6-methyl-3-oxanyl]oxy]-3,4,5-trihydroxy-2-oxanecarboxylic acid

> <PUBCHEM_IUPAC_NAME_MARKUP>
6-[4,5-dihydroxy-2-(hydroxymethyl)-6-methyloxan-3-yl]oxy-3,4,5-trihydroxyoxane-2-carboxylic acid

> <PUBCHEM_IUPAC_NAME>
6-[4,5-dihydroxy-2-(hydroxymethyl)-6-methyloxan-3-yl]oxy-3,4,5-trihydroxyoxane-2-carboxylic acid

> <PUBCHEM_IUPAC_SYSTEMATIC_NAME>
6-[2-(hydroxymethyl)-6-methyl-4,5-bis(oxidanyl)oxan-3-yl]oxy-3,4,5-tris(oxidanyl)oxane-2-carboxylic acid

> <PUBCHEM_IUPAC_TRADITIONAL_NAME>
6-(4,5-dihydroxy-6-methyl-2-methylol-tetrahydropyran-3-yl)oxy-3,4,5-trihydroxy-tetrahydropyran-2-carboxylic acid

> <PUBCHEM_IUPAC_INCHI>
InChI=1S/C13H22O11/c1-3-5(15)7(17)10(4(2-14)22-3)23-13-9(19)6(16)8(18)11(24-13)12(20)21/h3-11,13-19H,2H2,1H3,(H,20,21)

> <PUBCHEM_IUPAC_INCHIKEY>
LJLUTLVTXJVIQD-UHFFFAOYSA-N

> <PUBCHEM_XLOGP3_AA>
-3.5

> <PUBCHEM_EXACT_MASS>
354.11621151

> <PUBCHEM_MOLECULAR_FORMULA>
C13H22O11

> <PUBCHEM_MOLECULAR_WEIGHT>
354.31

> <PUBCHEM_OPENEYE_CAN_SMILES>
CC1C(C(C(C(O1)CO)OC2C(C(C(C(O2)C(=O)O)O)O)O)O)O

> <PUBCHEM_OPENEYE_ISO_SMILES>
CC1C(C(C(C(O1)CO)OC2C(C(C(C(O2)C(=O)O)O)O)O)O)O

> <PUBCHEM_CACTVS_TPSA>
186

> <PUBCHEM_MONOISOTOPIC_WEIGHT>
354.11621151

> <PUBCHEM_TOTAL_CHARGE>
0

> <PUBCHEM_HEAVY_ATOM_COUNT>
24

> <PUBCHEM_ATOM_DEF_STEREO_COUNT>
0

> <PUBCHEM_ATOM_UDEF_STEREO_COUNT>
10

> <PUBCHEM_BOND_DEF_STEREO_COUNT>
0

> <PUBCHEM_BOND_UDEF_STEREO_COUNT>
0

> <PUBCHEM_ISOTOPIC_ATOM_COUNT>
0

> <PUBCHEM_COMPONENT_COUNT>
1

> <PUBCHEM_CACTVS_TAUTO_COUNT>
-1

> <PUBCHEM_COORDINATE_TYPE>
1
5
255

> <PUBCHEM_BONDANNOTATIONS>
12  1  3
16  1  3
14  22  3
17  23  3
21  24  3
13  4  3
15  5  3
18  6  3
19  7  3
20  8  3

$$$$
