 
  -OEChem-10192103342D

 94 98  0     1  0  0  0  0  0999 V2000
    9.4651   -5.7500    0.0000 O   0  0  0  0  0  0  0  0  0  0  0  0
    7.7331   -5.7500    0.0000 O   0  0  0  0  0  0  0  0  0  0  0  0
    8.5991   -3.2500    0.0000 O   0  0  0  0  0  0  0  0  0  0  0  0
   11.1972   -4.7500    0.0000 O   0  0  0  0  0  0  0  0  0  0  0  0
    9.4651   -7.7500    0.0000 O   0  0  0  0  0  0  0  0  0  0  0  0
   11.1972   -2.7500    0.0000 O   0  0  0  0  0  0  0  0  0  0  0  0
    9.4651   -1.7500    0.0000 O   0  0  0  0  0  0  0  0  0  0  0  0
    7.7331   -8.7500    0.0000 O   0  0  0  0  0  0  0  0  0  0  0  0
    6.0010   -7.7500    0.0000 O   0  0  0  0  0  0  0  0  0  0  0  0
    5.1350    5.7500    0.0000 O   0  0  0  0  0  0  0  0  0  0  0  0
    6.8671   -4.2500    0.0000 O   0  0  0  0  0  0  0  0  0  0  0  0
    5.1350   -6.2500    0.0000 O   0  0  0  0  0  0  0  0  0  0  0  0
    6.8671    5.7500    0.0000 O   0  0  0  0  0  0  0  0  0  0  0  0
    3.4030    7.7500    0.0000 O   0  0  0  0  0  0  0  0  0  0  0  0
    5.1350    8.7500    0.0000 O   0  0  0  0  0  0  0  0  0  0  0  0
    6.8671    7.7500    0.0000 O   0  0  0  0  0  0  0  0  0  0  0  0
    2.5369    6.2500    0.0000 O   0  0  0  0  0  0  0  0  0  0  0  0
    6.0010   -1.7500    0.0000 O   0  0  0  0  0  0  0  0  0  0  0  0
    9.4651   -4.7500    0.0000 C   0  0  3  0  0  0  0  0  0  0  0  0
   10.3312   -4.2500    0.0000 C   0  0  3  0  0  0  0  0  0  0  0  0
    8.5991   -4.2500    0.0000 C   0  0  3  0  0  0  0  0  0  0  0  0
    8.5991   -6.2500    0.0000 C   0  0  3  0  0  0  0  0  0  0  0  0
    8.5991   -7.2500    0.0000 C   0  0  3  0  0  0  0  0  0  0  0  0
   10.3312   -3.2500    0.0000 C   0  0  3  0  0  0  0  0  0  0  0  0
    7.7331   -7.7500    0.0000 C   0  0  3  0  0  0  0  0  0  0  0  0
    6.8671   -7.2500    0.0000 C   0  0  3  0  0  0  0  0  0  0  0  0
    6.8671   -6.2500    0.0000 C   0  0  3  0  0  0  0  0  0  0  0  0
    9.4651   -2.7500    0.0000 C   0  0  3  0  0  0  0  0  0  0  0  0
    7.7331   -4.7500    0.0000 C   0  0  0  0  0  0  0  0  0  0  0  0
    6.0010   -5.7500    0.0000 C   0  0  0  0  0  0  0  0  0  0  0  0
    4.2690    7.2500    0.0000 C   0  0  3  0  0  0  0  0  0  0  0  0
    5.1350    7.7500    0.0000 C   0  0  3  0  0  0  0  0  0  0  0  0
    4.2690    6.2500    0.0000 C   0  0  3  0  0  0  0  0  0  0  0  0
    6.0010    7.2500    0.0000 C   0  0  3  0  0  0  0  0  0  0  0  0
    6.0010    6.2500    0.0000 C   0  0  3  0  0  0  0  0  0  0  0  0
    8.5991   -1.2500    0.0000 C   0  0  0  0  0  0  0  0  0  0  0  0
    3.4030    5.7500    0.0000 C   0  0  0  0  0  0  0  0  0  0  0  0
    8.5991   -0.2500    0.0000 C   0  0  0  0  0  0  0  0  0  0  0  0
    7.7331   -1.7500    0.0000 C   0  0  0  0  0  0  0  0  0  0  0  0
    7.7331    0.2500    0.0000 C   0  0  0  0  0  0  0  0  0  0  0  0
    6.8671    4.7500    0.0000 C   0  0  0  0  0  0  0  0  0  0  0  0
    7.7331    1.2500    0.0000 C   0  0  0  0  0  0  0  0  0  0  0  0
    6.8671   -1.2500    0.0000 C   0  0  0  0  0  0  0  0  0  0  0  0
    6.8671    1.7500    0.0000 C   0  0  0  0  0  0  0  0  0  0  0  0
    6.8671   -0.2500    0.0000 C   0  0  0  0  0  0  0  0  0  0  0  0
    6.8671    2.7500    0.0000 C   0  0  0  0  0  0  0  0  0  0  0  0
    6.0010    4.2500    0.0000 C   0  0  0  0  0  0  0  0  0  0  0  0
    7.7331    4.2500    0.0000 C   0  0  0  0  0  0  0  0  0  0  0  0
    6.0010    3.2500    0.0000 C   0  0  0  0  0  0  0  0  0  0  0  0
    7.7331    3.2500    0.0000 C   0  0  0  0  0  0  0  0  0  0  0  0
   10.0021   -5.0600    0.0000 H   0  0  0  0  0  0  0  0  0  0  0  0
   10.8681   -3.9400    0.0000 H   0  0  0  0  0  0  0  0  0  0  0  0
    8.0622   -3.9400    0.0000 H   0  0  0  0  0  0  0  0  0  0  0  0
    8.5991   -5.6300    0.0000 H   0  0  0  0  0  0  0  0  0  0  0  0
    8.5991   -7.8700    0.0000 H   0  0  0  0  0  0  0  0  0  0  0  0
   10.8681   -3.5600    0.0000 H   0  0  0  0  0  0  0  0  0  0  0  0
    7.1962   -8.0600    0.0000 H   0  0  0  0  0  0  0  0  0  0  0  0
    6.8671   -7.8700    0.0000 H   0  0  0  0  0  0  0  0  0  0  0  0
    6.8671   -5.6300    0.0000 H   0  0  0  0  0  0  0  0  0  0  0  0
   10.0021   -2.4400    0.0000 H   0  0  0  0  0  0  0  0  0  0  0  0
    7.3346   -5.2250    0.0000 H   0  0  0  0  0  0  0  0  0  0  0  0
    8.1316   -5.2250    0.0000 H   0  0  0  0  0  0  0  0  0  0  0  0
    6.3996   -5.2750    0.0000 H   0  0  0  0  0  0  0  0  0  0  0  0
    5.6025   -5.2750    0.0000 H   0  0  0  0  0  0  0  0  0  0  0  0
   11.7341   -4.4400    0.0000 H   0  0  0  0  0  0  0  0  0  0  0  0
    4.2690    7.8700    0.0000 H   0  0  0  0  0  0  0  0  0  0  0  0
    4.5981    8.0600    0.0000 H   0  0  0  0  0  0  0  0  0  0  0  0
    9.4651   -8.3700    0.0000 H   0  0  0  0  0  0  0  0  0  0  0  0
   11.1972   -2.1300    0.0000 H   0  0  0  0  0  0  0  0  0  0  0  0
    4.2690    5.6300    0.0000 H   0  0  0  0  0  0  0  0  0  0  0  0
    6.0010    7.8700    0.0000 H   0  0  0  0  0  0  0  0  0  0  0  0
    7.1962   -9.0600    0.0000 H   0  0  0  0  0  0  0  0  0  0  0  0
    6.0010   -8.3700    0.0000 H   0  0  0  0  0  0  0  0  0  0  0  0
    6.5380    6.5600    0.0000 H   0  0  0  0  0  0  0  0  0  0  0  0
    6.8671   -3.6300    0.0000 H   0  0  0  0  0  0  0  0  0  0  0  0
    3.0044    5.2750    0.0000 H   0  0  0  0  0  0  0  0  0  0  0  0
    3.8015    5.2750    0.0000 H   0  0  0  0  0  0  0  0  0  0  0  0
    4.5981   -5.9400    0.0000 H   0  0  0  0  0  0  0  0  0  0  0  0
    3.4030    8.3700    0.0000 H   0  0  0  0  0  0  0  0  0  0  0  0
    4.5981    9.0600    0.0000 H   0  0  0  0  0  0  0  0  0  0  0  0
    6.8671    8.3700    0.0000 H   0  0  0  0  0  0  0  0  0  0  0  0
    9.1360    0.0600    0.0000 H   0  0  0  0  0  0  0  0  0  0  0  0
    7.7331   -2.3700    0.0000 H   0  0  0  0  0  0  0  0  0  0  0  0
    8.3437    1.1423    0.0000 H   0  0  0  0  0  0  0  0  0  0  0  0
    7.9451    1.8326    0.0000 H   0  0  0  0  0  0  0  0  0  0  0  0
    6.2565    1.8577    0.0000 H   0  0  0  0  0  0  0  0  0  0  0  0
    6.6550    1.1674    0.0000 H   0  0  0  0  0  0  0  0  0  0  0  0
    2.0000    5.9400    0.0000 H   0  0  0  0  0  0  0  0  0  0  0  0
    6.3301    0.0600    0.0000 H   0  0  0  0  0  0  0  0  0  0  0  0
    5.4641    4.5600    0.0000 H   0  0  0  0  0  0  0  0  0  0  0  0
    8.2700    4.5600    0.0000 H   0  0  0  0  0  0  0  0  0  0  0  0
    5.4641    2.9400    0.0000 H   0  0  0  0  0  0  0  0  0  0  0  0
    8.2700    2.9400    0.0000 H   0  0  0  0  0  0  0  0  0  0  0  0
    5.4641   -1.4400    0.0000 H   0  0  0  0  0  0  0  0  0  0  0  0
  1 19  1  0  0  0  0
  1 22  1  0  0  0  0
  2 22  1  0  0  0  0
  2 27  1  0  0  0  0
  3 21  1  0  0  0  0
  3 28  1  0  0  0  0
  4 20  1  0  0  0  0
  4 65  1  0  0  0  0
  5 23  1  0  0  0  0
  5 68  1  0  0  0  0
  6 24  1  0  0  0  0
  6 69  1  0  0  0  0
  7 28  1  0  0  0  0
  7 36  1  0  0  0  0
  8 25  1  0  0  0  0
  8 72  1  0  0  0  0
  9 26  1  0  0  0  0
  9 73  1  0  0  0  0
 10 33  1  0  0  0  0
 10 35  1  0  0  0  0
 11 29  1  0  0  0  0
 11 75  1  0  0  0  0
 12 30  1  0  0  0  0
 12 78  1  0  0  0  0
 13 35  1  0  0  0  0
 13 41  1  0  0  0  0
 14 31  1  0  0  0  0
 14 79  1  0  0  0  0
 15 32  1  0  0  0  0
 15 80  1  0  0  0  0
 16 34  1  0  0  0  0
 16 81  1  0  0  0  0
 17 37  1  0  0  0  0
 17 88  1  0  0  0  0
 18 43  1  0  0  0  0
 18 94  1  0  0  0  0
 19 20  1  0  0  0  0
 19 21  1  0  0  0  0
 19 51  1  0  0  0  0
 20 24  1  0  0  0  0
 20 52  1  0  0  0  0
 21 29  1  0  0  0  0
 21 53  1  0  0  0  0
 22 23  1  0  0  0  0
 22 54  1  0  0  0  0
 23 25  1  0  0  0  0
 23 55  1  0  0  0  0
 24 28  1  0  0  0  0
 24 56  1  0  0  0  0
 25 26  1  0  0  0  0
 25 57  1  0  0  0  0
 26 27  1  0  0  0  0
 26 58  1  0  0  0  0
 27 30  1  0  0  0  0
 27 59  1  0  0  0  0
 28 60  1  0  0  0  0
 29 61  1  0  0  0  0
 29 62  1  0  0  0  0
 30 63  1  0  0  0  0
 30 64  1  0  0  0  0
 31 32  1  0  0  0  0
 31 33  1  0  0  0  0
 31 66  1  0  0  0  0
 32 34  1  0  0  0  0
 32 67  1  0  0  0  0
 33 37  1  0  0  0  0
 33 70  1  0  0  0  0
 34 35  1  0  0  0  0
 34 71  1  0  0  0  0
 35 74  1  0  0  0  0
 36 38  2  0  0  0  0
 36 39  1  0  0  0  0
 37 76  1  0  0  0  0
 37 77  1  0  0  0  0
 38 40  1  0  0  0  0
 38 82  1  0  0  0  0
 39 43  2  0  0  0  0
 39 83  1  0  0  0  0
 40 42  1  0  0  0  0
 40 45  2  0  0  0  0
 41 47  2  0  0  0  0
 41 48  1  0  0  0  0
 42 44  1  0  0  0  0
 42 84  1  0  0  0  0
 42 85  1  0  0  0  0
 43 45  1  0  0  0  0
 44 46  1  0  0  0  0
 44 86  1  0  0  0  0
 44 87  1  0  0  0  0
 45 89  1  0  0  0  0
 46 49  2  0  0  0  0
 46 50  1  0  0  0  0
 47 49  1  0  0  0  0
 47 90  1  0  0  0  0
 48 50  2  0  0  0  0
 48 91  1  0  0  0  0
 49 92  1  0  0  0  0
 50 93  1  0  0  0  0
M  END
> <PUBCHEM_COMPOUND_CID>
134310020

> <PUBCHEM_COMPOUND_CANONICALIZED>
1

> <PUBCHEM_CACTVS_COMPLEXITY>
1020

> <PUBCHEM_CACTVS_HBOND_ACCEPTOR>
18

> <PUBCHEM_CACTVS_HBOND_DONOR>
12

> <PUBCHEM_CACTVS_ROTATABLE_BOND>
12

> <PUBCHEM_CACTVS_SUBSKEYS>
AAADcfB8PgAAAAAAAAAAAAAAAAAAAAAAAAA0aJECAAAAAAABQAAAGgAACAAADBSwmAMwDoAABgCAAiBCAAACCAAgIAAIiAAGCIgdNyKGMRqieCClwBUPuAfA4PwOIAABCAAAAABAAAIQAAAAAAAAAAAAAA==

> <PUBCHEM_IUPAC_OPENEYE_NAME>
2-[4,5-dihydroxy-2-(hydroxymethyl)-6-[3-hydroxy-5-[2-[4-[3,4,5-trihydroxy-6-(hydroxymethyl)tetrahydropyran-2-yl]oxyphenyl]ethyl]phenoxy]tetrahydropyran-3-yl]oxy-6-(hydroxymethyl)tetrahydropyran-3,4,5-triol

> <PUBCHEM_IUPAC_CAS_NAME>
2-[[4,5-dihydroxy-2-(hydroxymethyl)-6-[3-hydroxy-5-[2-[4-[[3,4,5-trihydroxy-6-(hydroxymethyl)-2-oxanyl]oxy]phenyl]ethyl]phenoxy]-3-oxanyl]oxy]-6-(hydroxymethyl)oxane-3,4,5-triol

> <PUBCHEM_IUPAC_NAME_MARKUP>
2-[4,5-dihydroxy-2-(hydroxymethyl)-6-[3-hydroxy-5-[2-[4-[3,4,5-trihydroxy-6-(hydroxymethyl)oxan-2-yl]oxyphenyl]ethyl]phenoxy]oxan-3-yl]oxy-6-(hydroxymethyl)oxane-3,4,5-triol

> <PUBCHEM_IUPAC_NAME>
2-[4,5-dihydroxy-2-(hydroxymethyl)-6-[3-hydroxy-5-[2-[4-[3,4,5-trihydroxy-6-(hydroxymethyl)oxan-2-yl]oxyphenyl]ethyl]phenoxy]oxan-3-yl]oxy-6-(hydroxymethyl)oxane-3,4,5-triol

> <PUBCHEM_IUPAC_SYSTEMATIC_NAME>
2-(hydroxymethyl)-6-[2-(hydroxymethyl)-6-[3-[2-[4-[6-(hydroxymethyl)-3,4,5-tris(oxidanyl)oxan-2-yl]oxyphenyl]ethyl]-5-oxidanyl-phenoxy]-4,5-bis(oxidanyl)oxan-3-yl]oxy-oxane-3,4,5-triol

> <PUBCHEM_IUPAC_TRADITIONAL_NAME>
2-[4,5-dihydroxy-6-[3-hydroxy-5-[2-[4-(3,4,5-trihydroxy-6-methylol-tetrahydropyran-2-yl)oxyphenyl]ethyl]phenoxy]-2-methylol-tetrahydropyran-3-yl]oxy-6-methylol-tetrahydropyran-3,4,5-triol

> <PUBCHEM_IUPAC_INCHI>
InChI=1S/C32H44O18/c33-10-18-21(37)23(39)26(42)30(47-18)45-16-5-3-13(4-6-16)1-2-14-7-15(36)9-17(8-14)46-31-28(44)25(41)29(20(12-35)49-31)50-32-27(43)24(40)22(38)19(11-34)48-32/h3-9,18-44H,1-2,10-12H2

> <PUBCHEM_IUPAC_INCHIKEY>
USPINXDUHMHBTE-UHFFFAOYSA-N

> <PUBCHEM_XLOGP3_AA>
-2.7

> <PUBCHEM_EXACT_MASS>
716.25276455

> <PUBCHEM_MOLECULAR_FORMULA>
C32H44O18

> <PUBCHEM_MOLECULAR_WEIGHT>
716.7

> <PUBCHEM_OPENEYE_CAN_SMILES>
C1=CC(=CC=C1CCC2=CC(=CC(=C2)OC3C(C(C(C(O3)CO)OC4C(C(C(C(O4)CO)O)O)O)O)O)O)OC5C(C(C(C(O5)CO)O)O)O

> <PUBCHEM_OPENEYE_ISO_SMILES>
C1=CC(=CC=C1CCC2=CC(=CC(=C2)OC3C(C(C(C(O3)CO)OC4C(C(C(C(O4)CO)O)O)O)O)O)O)OC5C(C(C(C(O5)CO)O)O)O

> <PUBCHEM_CACTVS_TPSA>
298

> <PUBCHEM_MONOISOTOPIC_WEIGHT>
716.25276455

> <PUBCHEM_TOTAL_CHARGE>
0

> <PUBCHEM_HEAVY_ATOM_COUNT>
50

> <PUBCHEM_ATOM_DEF_STEREO_COUNT>
0

> <PUBCHEM_ATOM_UDEF_STEREO_COUNT>
15

> <PUBCHEM_BOND_DEF_STEREO_COUNT>
0

> <PUBCHEM_BOND_UDEF_STEREO_COUNT>
0

> <PUBCHEM_ISOTOPIC_ATOM_COUNT>
0

> <PUBCHEM_COMPONENT_COUNT>
1

> <PUBCHEM_CACTVS_TAUTO_COUNT>
-1

> <PUBCHEM_COORDINATE_TYPE>
1
5
255

> <PUBCHEM_BONDANNOTATIONS>
19  1  3
22  1  3
35  13  3
31  14  3
32  15  3
34  16  3
21  29  3
27  30  3
33  37  3
36  38  8
36  39  8
38  40  8
39  43  8
20  4  3
40  45  8
41  47  8
41  48  8
43  45  8
46  49  8
46  50  8
47  49  8
48  50  8
23  5  3
24  6  3
28  7  3
25  8  3
26  9  3

$$$$
