 
  -OEChem-10192104452D

 82 86  0     1  0  0  0  0  0999 V2000
    2.5357   -1.8922    0.0000 O   0  0  0  0  0  0  0  0  0  0  0  0
   11.5367    1.2129    0.0000 O   0  0  0  0  0  0  0  0  0  0  0  0
    4.3500   -3.6701    0.0000 O   0  0  0  0  0  0  0  0  0  0  0  0
    2.8467   -2.8098    0.0000 O   0  0  0  0  0  0  0  0  0  0  0  0
    7.0628   -0.3398    0.0000 C   0  0  2  0  0  0  0  0  0  0  0  0
    6.1968    0.1601    0.0000 C   0  0  3  0  0  0  0  0  0  0  0  0
    7.9288    0.1601    0.0000 C   0  0  1  0  0  0  0  0  0  0  0  0
    5.2868   -0.3467    0.0000 C   0  0  2  0  0  0  0  0  0  0  0  0
    5.2787   -1.3883    0.0000 C   0  0  1  0  0  0  0  0  0  0  0  0
    7.0789   -1.3814    0.0000 C   0  0  0  0  0  0  0  0  0  0  0  0
    7.9288    1.1602    0.0000 C   0  0  0  0  0  0  0  0  0  0  0  0
    8.8228    1.6948    0.0000 C   0  0  1  0  0  0  0  0  0  0  0  0
    9.7288    1.1810    0.0000 C   0  0  1  0  0  0  0  0  0  0  0  0
    6.1808   -1.9091    0.0000 C   0  0  0  0  0  0  0  0  0  0  0  0
    8.8228   -0.3745    0.0000 C   0  0  0  0  0  0  0  0  0  0  0  0
    6.1968    1.1602    0.0000 C   0  0  0  0  0  0  0  0  0  0  0  0
    4.3433   -1.9380    0.0000 C   0  0  1  0  0  0  0  0  0  0  0  0
    4.3599    0.2174    0.0000 C   0  0  0  0  0  0  0  0  0  0  0  0
    9.7288    0.1393    0.0000 C   0  0  0  0  0  0  0  0  0  0  0  0
    7.7056   -1.1059    0.0000 C   0  0  0  0  0  0  0  0  0  0  0  0
    7.0628    1.6602    0.0000 C   0  0  0  0  0  0  0  0  0  0  0  0
    8.2709   -0.7795    0.0000 C   0  0  0  0  0  0  0  0  0  0  0  0
    5.2945    0.6533    0.0000 C   0  0  0  0  0  0  0  0  0  0  0  0
    8.7977    2.7795    0.0000 C   0  0  0  0  0  0  0  0  0  0  0  0
    3.4037   -1.3955    0.0000 C   0  0  2  0  0  0  0  0  0  0  0  0
   10.6726    1.7162    0.0000 C   0  0  1  0  0  0  0  0  0  0  0  0
    3.4120   -0.3106    0.0000 C   0  0  0  0  0  0  0  0  0  0  0  0
    9.7288    3.3364    0.0000 C   0  0  0  0  0  0  0  0  0  0  0  0
   10.6726    2.8012    0.0000 C   0  0  0  0  0  0  0  0  0  0  0  0
   10.5987    0.6877    0.0000 C   0  0  0  0  0  0  0  0  0  0  0  0
    4.8466   -2.8021    0.0000 C   0  0  0  0  0  0  0  0  0  0  0  0
    3.8467   -2.8060    0.0000 C   0  0  0  0  0  0  0  0  0  0  0  0
   10.2188    4.2082    0.0000 C   0  0  0  0  0  0  0  0  0  0  0  0
    9.2188    4.1966    0.0000 C   0  0  0  0  0  0  0  0  0  0  0  0
    6.7337    0.4702    0.0000 H   0  0  0  0  0  0  0  0  0  0  0  0
    5.2820   -2.2383    0.0000 H   0  0  0  0  0  0  0  0  0  0  0  0
    7.2969   -1.9618    0.0000 H   0  0  0  0  0  0  0  0  0  0  0  0
    7.6880   -1.2659    0.0000 H   0  0  0  0  0  0  0  0  0  0  0  0
    9.5522    2.1311    0.0000 H   0  0  0  0  0  0  0  0  0  0  0  0
    5.7835   -2.3851    0.0000 H   0  0  0  0  0  0  0  0  0  0  0  0
    6.5818   -2.3820    0.0000 H   0  0  0  0  0  0  0  0  0  0  0  0
    8.4182   -0.8443    0.0000 H   0  0  0  0  0  0  0  0  0  0  0  0
    9.2164   -0.8535    0.0000 H   0  0  0  0  0  0  0  0  0  0  0  0
    5.9847    1.7428    0.0000 H   0  0  0  0  0  0  0  0  0  0  0  0
    5.5862    1.0525    0.0000 H   0  0  0  0  0  0  0  0  0  0  0  0
    4.7681    0.6840    0.0000 H   0  0  0  0  0  0  0  0  0  0  0  0
    3.9700    0.6994    0.0000 H   0  0  0  0  0  0  0  0  0  0  0  0
    9.9379   -0.4444    0.0000 H   0  0  0  0  0  0  0  0  0  0  0  0
   10.3397    0.2454    0.0000 H   0  0  0  0  0  0  0  0  0  0  0  0
    7.2306   -1.5044    0.0000 H   0  0  0  0  0  0  0  0  0  0  0  0
    8.1041   -1.5808    0.0000 H   0  0  0  0  0  0  0  0  0  0  0  0
    8.1805   -0.7074    0.0000 H   0  0  0  0  0  0  0  0  0  0  0  0
    7.0628    2.2802    0.0000 H   0  0  0  0  0  0  0  0  0  0  0  0
    7.6884   -0.9916    0.0000 H   0  0  0  0  0  0  0  0  0  0  0  0
    8.4830   -1.3621    0.0000 H   0  0  0  0  0  0  0  0  0  0  0  0
    8.8535   -0.5674    0.0000 H   0  0  0  0  0  0  0  0  0  0  0  0
    5.9145    0.6485    0.0000 H   0  0  0  0  0  0  0  0  0  0  0  0
    5.2993    1.2733    0.0000 H   0  0  0  0  0  0  0  0  0  0  0  0
    4.6745    0.6581    0.0000 H   0  0  0  0  0  0  0  0  0  0  0  0
    8.5752    3.3582    0.0000 H   0  0  0  0  0  0  0  0  0  0  0  0
    8.1894    2.6593    0.0000 H   0  0  0  0  0  0  0  0  0  0  0  0
    3.4025   -2.0155    0.0000 H   0  0  0  0  0  0  0  0  0  0  0  0
   11.2101    2.0252    0.0000 H   0  0  0  0  0  0  0  0  0  0  0  0
    3.2075    0.2747    0.0000 H   0  0  0  0  0  0  0  0  0  0  0  0
    2.8004   -0.4119    0.0000 H   0  0  0  0  0  0  0  0  0  0  0  0
   11.2835    2.6951    0.0000 H   0  0  0  0  0  0  0  0  0  0  0  0
   10.8817    3.3849    0.0000 H   0  0  0  0  0  0  0  0  0  0  0  0
   10.2928    0.1483    0.0000 H   0  0  0  0  0  0  0  0  0  0  0  0
   11.1380    0.3818    0.0000 H   0  0  0  0  0  0  0  0  0  0  0  0
   10.9045    1.2270    0.0000 H   0  0  0  0  0  0  0  0  0  0  0  0
    4.3109   -3.1142    0.0000 H   0  0  0  0  0  0  0  0  0  0  0  0
    5.1587   -3.3378    0.0000 H   0  0  0  0  0  0  0  0  0  0  0  0
    5.3824   -2.4900    0.0000 H   0  0  0  0  0  0  0  0  0  0  0  0
   10.7593    3.9044    0.0000 H   0  0  0  0  0  0  0  0  0  0  0  0
   10.5226    4.7487    0.0000 H   0  0  0  0  0  0  0  0  0  0  0  0
    9.6783    4.5120    0.0000 H   0  0  0  0  0  0  0  0  0  0  0  0
    9.7522    4.5128    0.0000 H   0  0  0  0  0  0  0  0  0  0  0  0
    8.9027    4.7299    0.0000 H   0  0  0  0  0  0  0  0  0  0  0  0
    8.6855    3.8804    0.0000 H   0  0  0  0  0  0  0  0  0  0  0  0
    2.0000   -1.5801    0.0000 H   0  0  0  0  0  0  0  0  0  0  0  0
   12.0748    1.5208    0.0000 H   0  0  0  0  0  0  0  0  0  0  0  0
    4.0421   -4.2082    0.0000 H   0  0  0  0  0  0  0  0  0  0  0  0
 25  1  1  1  0  0  0
  1 80  1  0  0  0  0
 26  2  1  1  0  0  0
  2 81  1  0  0  0  0
  3 32  1  0  0  0  0
  3 82  1  0  0  0  0
  4 32  2  0  0  0  0
  5  6  1  0  0  0  0
  5  7  1  0  0  0  0
  5 10  1  0  0  0  0
  5 20  1  1  0  0  0
  6  8  1  0  0  0  0
  6 16  1  0  0  0  0
  6 35  1  0  0  0  0
  7 11  1  0  0  0  0
  7 15  1  0  0  0  0
  7 22  1  6  0  0  0
  8  9  1  0  0  0  0
  8 18  1  0  0  0  0
  8 23  1  1  0  0  0
  9 14  1  0  0  0  0
  9 17  1  0  0  0  0
  9 36  1  6  0  0  0
 10 14  1  0  0  0  0
 10 37  1  0  0  0  0
 10 38  1  0  0  0  0
 11 12  1  0  0  0  0
 11 21  2  0  0  0  0
 12 13  1  0  0  0  0
 12 24  1  0  0  0  0
 12 39  1  1  0  0  0
 13 19  1  0  0  0  0
 13 26  1  0  0  0  0
 13 30  1  1  0  0  0
 14 40  1  0  0  0  0
 14 41  1  0  0  0  0
 15 19  1  0  0  0  0
 15 42  1  0  0  0  0
 15 43  1  0  0  0  0
 16 21  1  0  0  0  0
 16 44  1  0  0  0  0
 16 45  1  0  0  0  0
 17 25  1  0  0  0  0
 17 31  1  6  0  0  0
 17 32  1  0  0  0  0
 18 27  1  0  0  0  0
 18 46  1  0  0  0  0
 18 47  1  0  0  0  0
 19 48  1  0  0  0  0
 19 49  1  0  0  0  0
 20 50  1  0  0  0  0
 20 51  1  0  0  0  0
 20 52  1  0  0  0  0
 21 53  1  0  0  0  0
 22 54  1  0  0  0  0
 22 55  1  0  0  0  0
 22 56  1  0  0  0  0
 23 57  1  0  0  0  0
 23 58  1  0  0  0  0
 23 59  1  0  0  0  0
 24 28  1  0  0  0  0
 24 60  1  0  0  0  0
 24 61  1  0  0  0  0
 25 27  1  0  0  0  0
 25 62  1  0  0  0  0
 26 29  1  0  0  0  0
 26 63  1  0  0  0  0
 27 64  1  0  0  0  0
 27 65  1  0  0  0  0
 28 29  1  0  0  0  0
 28 33  1  0  0  0  0
 28 34  1  0  0  0  0
 29 66  1  0  0  0  0
 29 67  1  0  0  0  0
 30 68  1  0  0  0  0
 30 69  1  0  0  0  0
 30 70  1  0  0  0  0
 31 71  1  0  0  0  0
 31 72  1  0  0  0  0
 31 73  1  0  0  0  0
 33 74  1  0  0  0  0
 33 75  1  0  0  0  0
 33 76  1  0  0  0  0
 34 77  1  0  0  0  0
 34 78  1  0  0  0  0
 34 79  1  0  0  0  0
M  END
> <PUBCHEM_COMPOUND_CID>
10322600

> <PUBCHEM_COMPOUND_CANONICALIZED>
1

> <PUBCHEM_CACTVS_COMPLEXITY>
923

> <PUBCHEM_CACTVS_HBOND_ACCEPTOR>
4

> <PUBCHEM_CACTVS_HBOND_DONOR>
3

> <PUBCHEM_CACTVS_ROTATABLE_BOND>
1

> <PUBCHEM_CACTVS_SUBSKEYS>
AAADcfB4OAAAAAAAAAAAAAAAAAAAAAAAAAAwYMGCAAAAAADAAAAAGgAACAAADxSggAICCAAAAgCIAiDSCAAAAAAgAAAACAEAAAgAEBYAAQAAQAAFoAAIAAOIyPCPgAAAAAAAAADAAAYAADAAAAAAAAAAAA==

> <PUBCHEM_IUPAC_OPENEYE_NAME>
(3S,4R,4aR,6aR,6bS,8aR,9R,12aS,14bR)-3,9-dihydroxy-4,6a,6b,8a,11,11,14b-heptamethyl-1,2,3,4a,5,6,7,8,9,10,12,12a,14,14a-tetradecahydropicene-4-carboxylic acid

> <PUBCHEM_IUPAC_CAS_NAME>
(3S,4R,4aR,6aR,6bS,8aR,9R,12aS,14bR)-3,9-dihydroxy-4,6a,6b,8a,11,11,14b-heptamethyl-1,2,3,4a,5,6,7,8,9,10,12,12a,14,14a-tetradecahydropicene-4-carboxylic acid

> <PUBCHEM_IUPAC_NAME_MARKUP>
(3<I>S</I>,4<I>R</I>,4<I>a</I><I>R</I>,6<I>a</I><I>R</I>,6<I>b</I><I>S</I>,8<I>a</I><I>R</I>,9<I>R</I>,12<I>a</I><I>S</I>,14<I>b</I><I>R</I>)-3,9-dihydroxy-4,6<I>a</I>,6<I>b</I>,8<I>a</I>,11,11,14<I>b</I>-heptamethyl-1,2,3,4<I>a</I>,5,6,7,8,9,10,12,12<I>a</I>,14,14<I>a</I>-tetradecahydropicene-4-carboxylic acid

> <PUBCHEM_IUPAC_NAME>
(3S,4R,4aR,6aR,6bS,8aR,9R,12aS,14bR)-3,9-dihydroxy-4,6a,6b,8a,11,11,14b-heptamethyl-1,2,3,4a,5,6,7,8,9,10,12,12a,14,14a-tetradecahydropicene-4-carboxylic acid

> <PUBCHEM_IUPAC_SYSTEMATIC_NAME>
(3S,4R,4aR,6aR,6bS,8aR,9R,12aS,14bR)-4,6a,6b,8a,11,11,14b-heptamethyl-3,9-bis(oxidanyl)-1,2,3,4a,5,6,7,8,9,10,12,12a,14,14a-tetradecahydropicene-4-carboxylic acid

> <PUBCHEM_IUPAC_TRADITIONAL_NAME>
(3S,4R,4aR,6aR,6bS,8aR,9R,12aS,14bR)-3,9-dihydroxy-4,6a,6b,8a,11,11,14b-heptamethyl-1,2,3,4a,5,6,7,8,9,10,12,12a,14,14a-tetradecahydropicene-4-carboxylic acid

> <PUBCHEM_IUPAC_INCHI>
InChI=1S/C30H48O4/c1-25(2)16-19-18-8-9-20-27(4)12-11-22(31)30(7,24(33)34)21(27)10-13-29(20,6)28(18,5)15-14-26(19,3)23(32)17-25/h8,19-23,31-32H,9-17H2,1-7H3,(H,33,34)/t19-,20?,21+,22-,23+,26+,27+,28+,29+,30+/m0/s1

> <PUBCHEM_IUPAC_INCHIKEY>
DEQLWAQQTORLIY-HRKVTAIPSA-N

> <PUBCHEM_XLOGP3_AA>
6.9

> <PUBCHEM_EXACT_MASS>
472.35526001

> <PUBCHEM_MOLECULAR_FORMULA>
C30H48O4

> <PUBCHEM_MOLECULAR_WEIGHT>
472.7

> <PUBCHEM_OPENEYE_CAN_SMILES>
CC1(CC2C3=CCC4C5(CCC(C(C5CCC4(C3(CCC2(C(C1)O)C)C)C)(C)C(=O)O)O)C)C

> <PUBCHEM_OPENEYE_ISO_SMILES>
C[C@]12CC[C@@H]([C@]([C@@H]1CC[C@@]3(C2CC=C4[C@]3(CC[C@@]5([C@H]4CC(C[C@H]5O)(C)C)C)C)C)(C)C(=O)O)O

> <PUBCHEM_CACTVS_TPSA>
77.8

> <PUBCHEM_MONOISOTOPIC_WEIGHT>
472.35526001

> <PUBCHEM_TOTAL_CHARGE>
0

> <PUBCHEM_HEAVY_ATOM_COUNT>
34

> <PUBCHEM_ATOM_DEF_STEREO_COUNT>
9

> <PUBCHEM_ATOM_UDEF_STEREO_COUNT>
1

> <PUBCHEM_BOND_DEF_STEREO_COUNT>
0

> <PUBCHEM_BOND_UDEF_STEREO_COUNT>
0

> <PUBCHEM_ISOTOPIC_ATOM_COUNT>
0

> <PUBCHEM_COMPONENT_COUNT>
1

> <PUBCHEM_CACTVS_TAUTO_COUNT>
-1

> <PUBCHEM_COORDINATE_TYPE>
1
5
255

> <PUBCHEM_BONDANNOTATIONS>
25  1  5
12  39  5
13  30  5
17  31  6
26  2  5
5  20  5
6  16  3
7  22  6
8  23  5
9  36  6

$$$$
