 
  -OEChem-10192103312D

 93 97  0     1  0  0  0  0  0999 V2000
    7.7331    2.0000    0.0000 O   0  0  0  0  0  0  0  0  0  0  0  0
    4.2690    1.0000    0.0000 O   0  0  0  0  0  0  0  0  0  0  0  0
    6.0010    1.0000    0.0000 O   0  0  0  0  0  0  0  0  0  0  0  0
    6.0010    4.0000    0.0000 O   0  0  0  0  0  0  0  0  0  0  0  0
    7.7331    5.0000    0.0000 O   0  0  0  0  0  0  0  0  0  0  0  0
    6.0010   -1.0000    0.0000 O   0  0  0  0  0  0  0  0  0  0  0  0
    4.2690   -2.0000    0.0000 O   0  0  0  0  0  0  0  0  0  0  0  0
    9.4651    2.0000    0.0000 O   0  0  0  0  0  0  0  0  0  0  0  0
    2.5369   -1.0000    0.0000 O   0  0  0  0  0  0  0  0  0  0  0  0
   15.5273   -2.5000    0.0000 O   0  0  0  0  0  0  0  0  0  0  0  0
    9.4651    4.0000    0.0000 O   0  0  0  0  0  0  0  0  0  0  0  0
   18.1254   -2.0000    0.0000 O   0  0  0  0  0  0  0  0  0  0  0  0
   18.1254   -4.0000    0.0000 O   0  0  0  0  0  0  0  0  0  0  0  0
   14.6613   -4.0000    0.0000 O   0  0  0  0  0  0  0  0  0  0  0  0
   16.3933   -5.0000    0.0000 O   0  0  0  0  0  0  0  0  0  0  0  0
    2.5369    2.0000    0.0000 O   0  0  0  0  0  0  0  0  0  0  0  0
   17.2594   -0.5000    0.0000 O   0  0  0  0  0  0  0  0  0  0  0  0
    7.7331   -1.0000    0.0000 O   0  0  0  0  0  0  0  0  0  0  0  0
   11.1972   -4.0000    0.0000 O   0  0  0  0  0  0  0  0  0  0  0  0
    6.8671    2.5000    0.0000 C   0  0  1  0  0  0  0  0  0  0  0  0
    6.8671    3.5000    0.0000 C   0  0  2  0  0  0  0  0  0  0  0  0
    7.7331    4.0000    0.0000 C   0  0  1  0  0  0  0  0  0  0  0  0
    5.1350   -0.5000    0.0000 C   0  0  2  0  0  0  0  0  0  0  0  0
    4.2690   -1.0000    0.0000 C   0  0  2  0  0  0  0  0  0  0  0  0
    5.1350    0.5000    0.0000 C   0  0  1  0  0  0  0  0  0  0  0  0
    3.4030   -0.5000    0.0000 C   0  0  1  0  0  0  0  0  0  0  0  0
    8.5991    3.5000    0.0000 C   0  0  2  0  0  0  0  0  0  0  0  0
    3.4030    0.5000    0.0000 C   0  0  1  0  0  0  0  0  0  0  0  0
    6.0010    2.0000    0.0000 C   0  0  0  0  0  0  0  0  0  0  0  0
    8.5991    2.5000    0.0000 C   0  0  1  0  0  0  0  0  0  0  0  0
   17.2594   -2.5000    0.0000 C   0  0  1  0  0  0  0  0  0  0  0  0
   17.2594   -3.5000    0.0000 C   0  0  1  0  0  0  0  0  0  0  0  0
   16.3933   -2.0000    0.0000 C   0  0  1  0  0  0  0  0  0  0  0  0
   16.3933   -4.0000    0.0000 C   0  0  2  0  0  0  0  0  0  0  0  0
    2.5369    1.0000    0.0000 C   0  0  0  0  0  0  0  0  0  0  0  0
   15.5273   -3.5000    0.0000 C   0  0  1  0  0  0  0  0  0  0  0  0
   16.3933   -1.0000    0.0000 C   0  0  0  0  0  0  0  0  0  0  0  0
    9.4651    1.0000    0.0000 C   0  0  0  0  0  0  0  0  0  0  0  0
   13.7953   -3.5000    0.0000 C   0  0  0  0  0  0  0  0  0  0  0  0
   10.3312    0.5000    0.0000 C   0  0  0  0  0  0  0  0  0  0  0  0
    8.5991    0.5000    0.0000 C   0  0  0  0  0  0  0  0  0  0  0  0
   10.3312   -0.5000    0.0000 C   0  0  0  0  0  0  0  0  0  0  0  0
    8.5991   -0.5000    0.0000 C   0  0  0  0  0  0  0  0  0  0  0  0
   12.9292   -4.0000    0.0000 C   0  0  0  0  0  0  0  0  0  0  0  0
   13.7953   -2.5000    0.0000 C   0  0  0  0  0  0  0  0  0  0  0  0
    9.4651   -1.0000    0.0000 C   0  0  0  0  0  0  0  0  0  0  0  0
   12.0632   -2.5000    0.0000 C   0  0  0  0  0  0  0  0  0  0  0  0
   12.0632   -3.5000    0.0000 C   0  0  0  0  0  0  0  0  0  0  0  0
   11.1972   -1.0000    0.0000 C   0  0  0  0  0  0  0  0  0  0  0  0
   12.9292   -2.0000    0.0000 C   0  0  0  0  0  0  0  0  0  0  0  0
   11.1972   -2.0000    0.0000 C   0  0  0  0  0  0  0  0  0  0  0  0
    6.8671    1.8800    0.0000 H   0  0  0  0  0  0  0  0  0  0  0  0
    6.3301    3.1900    0.0000 H   0  0  0  0  0  0  0  0  0  0  0  0
    7.1962    4.3100    0.0000 H   0  0  0  0  0  0  0  0  0  0  0  0
    5.1350   -1.1200    0.0000 H   0  0  0  0  0  0  0  0  0  0  0  0
    3.7320   -1.3100    0.0000 H   0  0  0  0  0  0  0  0  0  0  0  0
    5.1350    1.1200    0.0000 H   0  0  0  0  0  0  0  0  0  0  0  0
    3.4030   -1.1200    0.0000 H   0  0  0  0  0  0  0  0  0  0  0  0
    8.5991    4.1200    0.0000 H   0  0  0  0  0  0  0  0  0  0  0  0
    3.4030    1.1200    0.0000 H   0  0  0  0  0  0  0  0  0  0  0  0
    5.7890    2.5826    0.0000 H   0  0  0  0  0  0  0  0  0  0  0  0
    5.3905    1.8923    0.0000 H   0  0  0  0  0  0  0  0  0  0  0  0
    8.5991    1.8800    0.0000 H   0  0  0  0  0  0  0  0  0  0  0  0
   17.7963   -2.8100    0.0000 H   0  0  0  0  0  0  0  0  0  0  0  0
   17.2594   -4.1200    0.0000 H   0  0  0  0  0  0  0  0  0  0  0  0
   15.8564   -1.6900    0.0000 H   0  0  0  0  0  0  0  0  0  0  0  0
   16.9303   -4.3100    0.0000 H   0  0  0  0  0  0  0  0  0  0  0  0
    1.9264    1.1077    0.0000 H   0  0  0  0  0  0  0  0  0  0  0  0
    2.3249    0.4174    0.0000 H   0  0  0  0  0  0  0  0  0  0  0  0
   15.5273   -4.1200    0.0000 H   0  0  0  0  0  0  0  0  0  0  0  0
    6.0010    4.6200    0.0000 H   0  0  0  0  0  0  0  0  0  0  0  0
    8.2700    5.3100    0.0000 H   0  0  0  0  0  0  0  0  0  0  0  0
    6.5380   -0.6900    0.0000 H   0  0  0  0  0  0  0  0  0  0  0  0
    3.7320   -2.3100    0.0000 H   0  0  0  0  0  0  0  0  0  0  0  0
    2.0000   -0.6900    0.0000 H   0  0  0  0  0  0  0  0  0  0  0  0
   10.0021    3.6900    0.0000 H   0  0  0  0  0  0  0  0  0  0  0  0
   16.1813   -0.4174    0.0000 H   0  0  0  0  0  0  0  0  0  0  0  0
   15.7828   -1.1077    0.0000 H   0  0  0  0  0  0  0  0  0  0  0  0
   18.6623   -2.3100    0.0000 H   0  0  0  0  0  0  0  0  0  0  0  0
   18.6623   -3.6900    0.0000 H   0  0  0  0  0  0  0  0  0  0  0  0
   16.9303   -5.3100    0.0000 H   0  0  0  0  0  0  0  0  0  0  0  0
    2.0000    2.3100    0.0000 H   0  0  0  0  0  0  0  0  0  0  0  0
   10.8681    0.8100    0.0000 H   0  0  0  0  0  0  0  0  0  0  0  0
   17.2594    0.1200    0.0000 H   0  0  0  0  0  0  0  0  0  0  0  0
    8.0622    0.8100    0.0000 H   0  0  0  0  0  0  0  0  0  0  0  0
   12.9292   -4.6200    0.0000 H   0  0  0  0  0  0  0  0  0  0  0  0
   14.3322   -2.1900    0.0000 H   0  0  0  0  0  0  0  0  0  0  0  0
    9.4651   -1.6200    0.0000 H   0  0  0  0  0  0  0  0  0  0  0  0
   12.9292   -1.3800    0.0000 H   0  0  0  0  0  0  0  0  0  0  0  0
   11.7341   -0.6900    0.0000 H   0  0  0  0  0  0  0  0  0  0  0  0
   10.6603   -2.3100    0.0000 H   0  0  0  0  0  0  0  0  0  0  0  0
    7.7331   -1.6200    0.0000 H   0  0  0  0  0  0  0  0  0  0  0  0
   11.1972   -4.6200    0.0000 H   0  0  0  0  0  0  0  0  0  0  0  0
  1 20  1  0  0  0  0
  1 30  1  0  0  0  0
  2 25  1  0  0  0  0
  2 28  1  0  0  0  0
 25  3  1  1  0  0  0
  3 29  1  0  0  0  0
 21  4  1  1  0  0  0
  4 71  1  0  0  0  0
 22  5  1  6  0  0  0
  5 72  1  0  0  0  0
 23  6  1  6  0  0  0
  6 73  1  0  0  0  0
 24  7  1  1  0  0  0
  7 74  1  0  0  0  0
 30  8  1  6  0  0  0
  8 38  1  0  0  0  0
 26  9  1  6  0  0  0
  9 75  1  0  0  0  0
 10 33  1  0  0  0  0
 10 36  1  0  0  0  0
 27 11  1  1  0  0  0
 11 76  1  0  0  0  0
 31 12  1  1  0  0  0
 12 79  1  0  0  0  0
 32 13  1  6  0  0  0
 13 80  1  0  0  0  0
 36 14  1  6  0  0  0
 14 39  1  0  0  0  0
 34 15  1  1  0  0  0
 15 81  1  0  0  0  0
 16 35  1  0  0  0  0
 16 82  1  0  0  0  0
 17 37  1  0  0  0  0
 17 84  1  0  0  0  0
 18 43  1  0  0  0  0
 18 92  1  0  0  0  0
 19 48  1  0  0  0  0
 19 93  1  0  0  0  0
 20 21  1  0  0  0  0
 20 29  1  6  0  0  0
 20 52  1  0  0  0  0
 21 22  1  0  0  0  0
 21 53  1  0  0  0  0
 22 27  1  0  0  0  0
 22 54  1  0  0  0  0
 23 24  1  0  0  0  0
 23 25  1  0  0  0  0
 23 55  1  0  0  0  0
 24 26  1  0  0  0  0
 24 56  1  0  0  0  0
 25 57  1  0  0  0  0
 26 28  1  0  0  0  0
 26 58  1  0  0  0  0
 27 30  1  0  0  0  0
 27 59  1  0  0  0  0
 28 35  1  1  0  0  0
 28 60  1  0  0  0  0
 29 61  1  0  0  0  0
 29 62  1  0  0  0  0
 30 63  1  0  0  0  0
 31 32  1  0  0  0  0
 31 33  1  0  0  0  0
 31 64  1  0  0  0  0
 32 34  1  0  0  0  0
 32 65  1  0  0  0  0
 33 37  1  6  0  0  0
 33 66  1  0  0  0  0
 34 36  1  0  0  0  0
 34 67  1  0  0  0  0
 35 68  1  0  0  0  0
 35 69  1  0  0  0  0
 36 70  1  0  0  0  0
 37 77  1  0  0  0  0
 37 78  1  0  0  0  0
 38 40  2  0  0  0  0
 38 41  1  0  0  0  0
 39 44  2  0  0  0  0
 39 45  1  0  0  0  0
 40 42  1  0  0  0  0
 40 83  1  0  0  0  0
 41 43  2  0  0  0  0
 41 85  1  0  0  0  0
 42 46  2  0  0  0  0
 42 49  1  0  0  0  0
 43 46  1  0  0  0  0
 44 48  1  0  0  0  0
 44 86  1  0  0  0  0
 45 50  2  0  0  0  0
 45 87  1  0  0  0  0
 46 88  1  0  0  0  0
 47 48  2  0  0  0  0
 47 50  1  0  0  0  0
 47 51  1  0  0  0  0
 49 51  2  0  0  0  0
 49 90  1  0  0  0  0
 50 89  1  0  0  0  0
 51 91  1  0  0  0  0
M  END
> <PUBCHEM_COMPOUND_CID>
102422540

> <PUBCHEM_COMPOUND_CANONICALIZED>
1

> <PUBCHEM_CACTVS_COMPLEXITY>
1100

> <PUBCHEM_CACTVS_HBOND_ACCEPTOR>
19

> <PUBCHEM_CACTVS_HBOND_DONOR>
13

> <PUBCHEM_CACTVS_ROTATABLE_BOND>
11

> <PUBCHEM_CACTVS_SUBSKEYS>
AAADcfB8PgAAAAAAAAAAAAAAAAAAAAAAAAA0aJECAAAAAAABQAAAGgAACAAADBSwmAMwDoAABgCAAiBCAAACCAAgIAAIiAAGCIgdNyKGMRqieCClwBUPuAfA4DwOIAABCAAIAABAAAIQABAAAAAAAAAAAA==

> <PUBCHEM_IUPAC_OPENEYE_NAME>
(2R,3S,4S,5R,6R)-2-(hydroxymethyl)-6-[[(2R,3S,4S,5R,6S)-3,4,5-trihydroxy-6-[3-hydroxy-5-[(E)-2-[2-hydroxy-4-[(2S,3R,4S,5S,6R)-3,4,5-trihydroxy-6-(hydroxymethyl)tetrahydropyran-2-yl]oxy-phenyl]vinyl]phenoxy]tetrahydropyran-2-yl]methoxy]tetrahydropyran-3,4,5-triol

> <PUBCHEM_IUPAC_CAS_NAME>
(2R,3S,4S,5R,6R)-2-(hydroxymethyl)-6-[[(2R,3S,4S,5R,6S)-3,4,5-trihydroxy-6-[3-hydroxy-5-[(E)-2-[2-hydroxy-4-[[(2S,3R,4S,5S,6R)-3,4,5-trihydroxy-6-(hydroxymethyl)-2-oxanyl]oxy]phenyl]ethenyl]phenoxy]-2-oxanyl]methoxy]oxane-3,4,5-triol

> <PUBCHEM_IUPAC_NAME_MARKUP>
(2<I>R</I>,3<I>S</I>,4<I>S</I>,5<I>R</I>,6<I>R</I>)-2-(hydroxymethyl)-6-[[(2<I>R</I>,3<I>S</I>,4<I>S</I>,5<I>R</I>,6<I>S</I>)-3,4,5-trihydroxy-6-[3-hydroxy-5-[(<I>E</I>)-2-[2-hydroxy-4-[(2<I>S</I>,3<I>R</I>,4<I>S</I>,5<I>S</I>,6<I>R</I>)-3,4,5-trihydroxy-6-(hydroxymethyl)oxan-2-yl]oxyphenyl]ethenyl]phenoxy]oxan-2-yl]methoxy]oxane-3,4,5-triol

> <PUBCHEM_IUPAC_NAME>
(2R,3S,4S,5R,6R)-2-(hydroxymethyl)-6-[[(2R,3S,4S,5R,6S)-3,4,5-trihydroxy-6-[3-hydroxy-5-[(E)-2-[2-hydroxy-4-[(2S,3R,4S,5S,6R)-3,4,5-trihydroxy-6-(hydroxymethyl)oxan-2-yl]oxyphenyl]ethenyl]phenoxy]oxan-2-yl]methoxy]oxane-3,4,5-triol

> <PUBCHEM_IUPAC_SYSTEMATIC_NAME>
(2R,3S,4S,5R,6R)-2-(hydroxymethyl)-6-[[(2R,3S,4S,5R,6S)-6-[3-[(E)-2-[4-[(2S,3R,4S,5S,6R)-6-(hydroxymethyl)-3,4,5-tris(oxidanyl)oxan-2-yl]oxy-2-oxidanyl-phenyl]ethenyl]-5-oxidanyl-phenoxy]-3,4,5-tris(oxidanyl)oxan-2-yl]methoxy]oxane-3,4,5-triol

> <PUBCHEM_IUPAC_TRADITIONAL_NAME>
(2R,3S,4S,5R,6R)-2-methylol-6-[[(2R,3S,4S,5R,6S)-3,4,5-trihydroxy-6-[3-hydroxy-5-[(E)-2-[2-hydroxy-4-[(2S,3R,4S,5S,6R)-3,4,5-trihydroxy-6-methylol-tetrahydropyran-2-yl]oxy-phenyl]vinyl]phenoxy]tetrahydropyran-2-yl]methoxy]tetrahydropyran-3,4,5-triol

> <PUBCHEM_IUPAC_INCHI>
InChI=1S/C32H42O19/c33-9-18-21(37)24(40)27(43)30(49-18)46-11-20-23(39)26(42)29(45)32(51-20)48-16-6-12(5-14(35)7-16)1-2-13-3-4-15(8-17(13)36)47-31-28(44)25(41)22(38)19(10-34)50-31/h1-8,18-45H,9-11H2/b2-1+/t18-,19-,20-,21-,22-,23-,24+,25+,26+,27-,28-,29-,30-,31-,32-/m1/s1

> <PUBCHEM_IUPAC_INCHIKEY>
HLHCMOZLBZMILS-UREMDRLGSA-N

> <PUBCHEM_XLOGP3_AA>
-3

> <PUBCHEM_EXACT_MASS>
730.23202911

> <PUBCHEM_MOLECULAR_FORMULA>
C32H42O19

> <PUBCHEM_MOLECULAR_WEIGHT>
730.7

> <PUBCHEM_OPENEYE_CAN_SMILES>
C1=CC(=C(C=C1OC2C(C(C(C(O2)CO)O)O)O)O)C=CC3=CC(=CC(=C3)OC4C(C(C(C(O4)COC5C(C(C(C(O5)CO)O)O)O)O)O)O)O

> <PUBCHEM_OPENEYE_ISO_SMILES>
C1=CC(=C(C=C1O[C@H]2[C@@H]([C@H]([C@@H]([C@H](O2)CO)O)O)O)O)/C=C/C3=CC(=CC(=C3)O[C@H]4[C@@H]([C@H]([C@@H]([C@H](O4)CO[C@H]5[C@@H]([C@H]([C@@H]([C@H](O5)CO)O)O)O)O)O)O)O

> <PUBCHEM_CACTVS_TPSA>
318

> <PUBCHEM_MONOISOTOPIC_WEIGHT>
730.23202911

> <PUBCHEM_TOTAL_CHARGE>
0

> <PUBCHEM_HEAVY_ATOM_COUNT>
51

> <PUBCHEM_ATOM_DEF_STEREO_COUNT>
15

> <PUBCHEM_ATOM_UDEF_STEREO_COUNT>
0

> <PUBCHEM_BOND_DEF_STEREO_COUNT>
1

> <PUBCHEM_BOND_UDEF_STEREO_COUNT>
0

> <PUBCHEM_ISOTOPIC_ATOM_COUNT>
0

> <PUBCHEM_COMPONENT_COUNT>
1

> <PUBCHEM_CACTVS_TAUTO_COUNT>
-1

> <PUBCHEM_COORDINATE_TYPE>
1
5
255

> <PUBCHEM_BONDANNOTATIONS>
27  11  5
31  12  5
32  13  6
36  14  6
34  15  5
20  29  6
28  35  5
25  3  5
33  37  6
38  40  8
38  41  8
39  44  8
39  45  8
21  4  5
40  42  8
41  43  8
42  46  8
43  46  8
44  48  8
45  50  8
47  48  8
47  50  8
22  5  6
23  6  6
24  7  5
30  8  6
26  9  6

$$$$
