 
  -OEChem-10192103552D

 71 71  0     1  0  0  0  0  0999 V2000
    8.0622    2.7500    0.0000 S   0  0  0  0  0  0  0  0  0  0  0  0
    3.7320    0.2500    0.0000 P   0  0  0  0  0  0  0  0  0  0  0  0
    7.1962    2.2500    0.0000 O   0  0  0  0  0  0  0  0  0  0  0  0
    3.7320   -3.7500    0.0000 O   0  0  0  0  0  0  0  0  0  0  0  0
    4.5981    0.7500    0.0000 O   0  0  0  0  0  0  0  0  0  0  0  0
    4.5981   -1.2500    0.0000 O   0  0  0  0  0  0  0  0  0  0  0  0
    2.0000   -3.7500    0.0000 O   0  0  0  0  0  0  0  0  0  0  0  0
    6.3301   -1.2500    0.0000 O   0  0  0  0  0  0  0  0  0  0  0  0
    7.5622    3.6160    0.0000 O   0  0  0  0  0  0  0  0  0  0  0  0
    8.5622    1.8840    0.0000 O   0  0  0  0  0  0  0  0  0  0  0  0
    3.2320    1.1160    0.0000 O   0  0  0  0  0  0  0  0  0  0  0  0
    2.8660   -0.2500    0.0000 O   0  0  0  0  0  0  0  0  0  0  0  0
    4.2320   -0.6160    0.0000 O   0  0  0  0  0  0  0  0  0  0  0  0
   11.5263    5.7500    0.0000 O   0  0  0  0  0  0  0  0  0  0  0  0
    9.7942    5.7500    0.0000 N   0  0  0  0  0  0  0  0  0  0  0  0
    2.8660   -5.2500    0.0000 C   0  0  0  0  0  0  0  0  0  0  0  0
    2.0000   -5.7500    0.0000 C   0  0  0  0  0  0  0  0  0  0  0  0
    3.7320   -5.7500    0.0000 C   0  0  0  0  0  0  0  0  0  0  0  0
    2.0000   -6.7500    0.0000 C   0  0  0  0  0  0  0  0  0  0  0  0
    3.7320   -6.7500    0.0000 C   0  0  0  0  0  0  0  0  0  0  0  0
    2.8660   -7.2500    0.0000 C   0  0  0  0  0  0  0  0  0  0  0  0
    6.3301    0.7500    0.0000 C   0  0  0  0  0  0  0  0  0  0  0  0
    5.4641    0.2500    0.0000 C   0  0  2  0  0  0  0  0  0  0  0  0
    2.8660   -4.2500    0.0000 C   0  0  0  0  0  0  0  0  0  0  0  0
    7.1962    1.2500    0.0000 C   0  0  0  0  0  0  0  0  0  0  0  0
    5.8301    1.6160    0.0000 C   0  0  0  0  0  0  0  0  0  0  0  0
    6.8301   -0.1160    0.0000 C   0  0  0  0  0  0  0  0  0  0  0  0
    5.4641   -0.7500    0.0000 C   0  0  0  0  0  0  0  0  0  0  0  0
    3.7320   -2.7500    0.0000 C   0  0  0  0  0  0  0  0  0  0  0  0
    4.5981   -2.2500    0.0000 C   0  0  0  0  0  0  0  0  0  0  0  0
    8.9282    3.2500    0.0000 C   0  0  0  0  0  0  0  0  0  0  0  0
    8.9282    4.2500    0.0000 C   0  0  0  0  0  0  0  0  0  0  0  0
    9.7942    4.7500    0.0000 C   0  0  0  0  0  0  0  0  0  0  0  0
   10.6603    6.2500    0.0000 C   0  0  0  0  0  0  0  0  0  0  0  0
   10.6603    7.2500    0.0000 C   0  0  0  0  0  0  0  0  0  0  0  0
    3.4030   -4.9400    0.0000 H   0  0  0  0  0  0  0  0  0  0  0  0
    1.7880   -5.1674    0.0000 H   0  0  0  0  0  0  0  0  0  0  0  0
    1.3894   -5.8577    0.0000 H   0  0  0  0  0  0  0  0  0  0  0  0
    4.3426   -5.8577    0.0000 H   0  0  0  0  0  0  0  0  0  0  0  0
    3.9441   -5.1674    0.0000 H   0  0  0  0  0  0  0  0  0  0  0  0
    1.3894   -6.6423    0.0000 H   0  0  0  0  0  0  0  0  0  0  0  0
    1.7880   -7.3326    0.0000 H   0  0  0  0  0  0  0  0  0  0  0  0
    3.9441   -7.3326    0.0000 H   0  0  0  0  0  0  0  0  0  0  0  0
    4.3426   -6.6423    0.0000 H   0  0  0  0  0  0  0  0  0  0  0  0
    2.4675   -7.7250    0.0000 H   0  0  0  0  0  0  0  0  0  0  0  0
    3.2646   -7.7250    0.0000 H   0  0  0  0  0  0  0  0  0  0  0  0
    5.4641    0.8700    0.0000 H   0  0  0  0  0  0  0  0  0  0  0  0
    7.4082    0.6674    0.0000 H   0  0  0  0  0  0  0  0  0  0  0  0
    7.8067    1.3577    0.0000 H   0  0  0  0  0  0  0  0  0  0  0  0
    6.3671    1.9260    0.0000 H   0  0  0  0  0  0  0  0  0  0  0  0
    5.5201    2.1530    0.0000 H   0  0  0  0  0  0  0  0  0  0  0  0
    5.2932    1.3060    0.0000 H   0  0  0  0  0  0  0  0  0  0  0  0
    6.2932   -0.4260    0.0000 H   0  0  0  0  0  0  0  0  0  0  0  0
    7.1401   -0.6530    0.0000 H   0  0  0  0  0  0  0  0  0  0  0  0
    7.3671    0.1940    0.0000 H   0  0  0  0  0  0  0  0  0  0  0  0
    3.5200   -2.1674    0.0000 H   0  0  0  0  0  0  0  0  0  0  0  0
    3.1215   -2.8577    0.0000 H   0  0  0  0  0  0  0  0  0  0  0  0
    4.8101   -2.8326    0.0000 H   0  0  0  0  0  0  0  0  0  0  0  0
    5.2087   -2.1423    0.0000 H   0  0  0  0  0  0  0  0  0  0  0  0
    9.1403    2.6674    0.0000 H   0  0  0  0  0  0  0  0  0  0  0  0
    9.5388    3.3577    0.0000 H   0  0  0  0  0  0  0  0  0  0  0  0
    8.7162    4.8326    0.0000 H   0  0  0  0  0  0  0  0  0  0  0  0
    8.3176    4.1423    0.0000 H   0  0  0  0  0  0  0  0  0  0  0  0
   10.0063    4.1674    0.0000 H   0  0  0  0  0  0  0  0  0  0  0  0
   10.4048    4.8577    0.0000 H   0  0  0  0  0  0  0  0  0  0  0  0
    2.6120    1.1160    0.0000 H   0  0  0  0  0  0  0  0  0  0  0  0
    2.3291    0.0600    0.0000 H   0  0  0  0  0  0  0  0  0  0  0  0
    9.2573    6.0600    0.0000 H   0  0  0  0  0  0  0  0  0  0  0  0
   11.2803    7.2500    0.0000 H   0  0  0  0  0  0  0  0  0  0  0  0
   10.6603    7.8700    0.0000 H   0  0  0  0  0  0  0  0  0  0  0  0
   10.0403    7.2500    0.0000 H   0  0  0  0  0  0  0  0  0  0  0  0
  1  3  1  0  0  0  0
  1  9  2  0  0  0  0
  1 10  2  0  0  0  0
  1 31  1  0  0  0  0
  2  5  1  0  0  0  0
  2 11  1  0  0  0  0
  2 12  1  0  0  0  0
  2 13  2  0  0  0  0
  3 25  1  0  0  0  0
  4 24  1  0  0  0  0
  4 29  1  0  0  0  0
 23  5  1  6  0  0  0
  6 28  1  0  0  0  0
  6 30  1  0  0  0  0
  7 24  2  0  0  0  0
  8 28  2  0  0  0  0
 11 66  1  0  0  0  0
 12 67  1  0  0  0  0
 14 34  2  0  0  0  0
 15 33  1  0  0  0  0
 15 34  1  0  0  0  0
 15 68  1  0  0  0  0
 16 17  1  0  0  0  0
 16 18  1  0  0  0  0
 16 24  1  0  0  0  0
 16 36  1  0  0  0  0
 17 19  1  0  0  0  0
 17 37  1  0  0  0  0
 17 38  1  0  0  0  0
 18 20  1  0  0  0  0
 18 39  1  0  0  0  0
 18 40  1  0  0  0  0
 19 21  1  0  0  0  0
 19 41  1  0  0  0  0
 19 42  1  0  0  0  0
 20 21  1  0  0  0  0
 20 43  1  0  0  0  0
 20 44  1  0  0  0  0
 21 45  1  0  0  0  0
 21 46  1  0  0  0  0
 22 23  1  0  0  0  0
 22 25  1  0  0  0  0
 22 26  1  0  0  0  0
 22 27  1  0  0  0  0
 23 28  1  0  0  0  0
 23 47  1  0  0  0  0
 25 48  1  0  0  0  0
 25 49  1  0  0  0  0
 26 50  1  0  0  0  0
 26 51  1  0  0  0  0
 26 52  1  0  0  0  0
 27 53  1  0  0  0  0
 27 54  1  0  0  0  0
 27 55  1  0  0  0  0
 29 30  1  0  0  0  0
 29 56  1  0  0  0  0
 29 57  1  0  0  0  0
 30 58  1  0  0  0  0
 30 59  1  0  0  0  0
 31 32  1  0  0  0  0
 31 60  1  0  0  0  0
 31 61  1  0  0  0  0
 32 33  1  0  0  0  0
 32 62  1  0  0  0  0
 32 63  1  0  0  0  0
 33 64  1  0  0  0  0
 33 65  1  0  0  0  0
 34 35  1  0  0  0  0
 35 69  1  0  0  0  0
 35 70  1  0  0  0  0
 35 71  1  0  0  0  0
M  END
> <PUBCHEM_COMPOUND_CID>
54755151

> <PUBCHEM_COMPOUND_CANONICALIZED>
1

> <PUBCHEM_CACTVS_COMPLEXITY>
858

> <PUBCHEM_CACTVS_HBOND_ACCEPTOR>
12

> <PUBCHEM_CACTVS_HBOND_DONOR>
3

> <PUBCHEM_CACTVS_ROTATABLE_BOND>
17

> <PUBCHEM_CACTVS_SUBSKEYS>
AAADcfB6PAJAAAAAAAAAAAAAAAAAAAAAAAAwAAAAAAAAAAAAAAAAHgQQCCAADxTlwAaCCALABRIIQAGQGPJAAAAAAAAAAIFIAAABABIAAAAGAAAFFgCCAAHKyCCPAAAAAAAAAAAAAAAAAAAAAAAAAAAAAA==

> <PUBCHEM_IUPAC_OPENEYE_NAME>
2-[(2R)-4-(3-acetamidopropylsulfonyloxy)-3,3-dimethyl-2-phosphonooxy-butanoyl]oxyethyl cyclohexanecarboxylate

> <PUBCHEM_IUPAC_CAS_NAME>
cyclohexanecarboxylic acid 2-[(2R)-4-(3-acetamidopropylsulfonyloxy)-3,3-dimethyl-1-oxo-2-phosphonooxybutoxy]ethyl ester

> <PUBCHEM_IUPAC_NAME_MARKUP>
2-[(2<I>R</I>)-4-(3-acetamidopropylsulfonyloxy)-3,3-dimethyl-2-phosphonooxybutanoyl]oxyethyl cyclohexanecarboxylate

> <PUBCHEM_IUPAC_NAME>
2-[(2R)-4-(3-acetamidopropylsulfonyloxy)-3,3-dimethyl-2-phosphonooxybutanoyl]oxyethyl cyclohexanecarboxylate

> <PUBCHEM_IUPAC_SYSTEMATIC_NAME>
2-[(2R)-4-(3-acetamidopropylsulfonyloxy)-3,3-dimethyl-2-phosphonooxy-butanoyl]oxyethyl cyclohexanecarboxylate

> <PUBCHEM_IUPAC_TRADITIONAL_NAME>
cyclohexanecarboxylic acid 2-[(2R)-4-(3-acetamidopropylsulfonyloxy)-3,3-dimethyl-2-phosphonooxy-butanoyl]oxyethyl ester

> <PUBCHEM_IUPAC_INCHI>
InChI=1S/C20H36NO12PS/c1-15(22)21-10-7-13-35(28,29)32-14-20(2,3)17(33-34(25,26)27)19(24)31-12-11-30-18(23)16-8-5-4-6-9-16/h16-17H,4-14H2,1-3H3,(H,21,22)(H2,25,26,27)/t17-/m0/s1

> <PUBCHEM_IUPAC_INCHIKEY>
YJSYOPGPGLYHTA-KRWDZBQOSA-N

> <PUBCHEM_XLOGP3_AA>
0.7

> <PUBCHEM_EXACT_MASS>
545.16958375

> <PUBCHEM_MOLECULAR_FORMULA>
C20H36NO12PS

> <PUBCHEM_MOLECULAR_WEIGHT>
545.5

> <PUBCHEM_OPENEYE_CAN_SMILES>
CC(=O)NCCCS(=O)(=O)OCC(C)(C)C(C(=O)OCCOC(=O)C1CCCCC1)OP(=O)(O)O

> <PUBCHEM_OPENEYE_ISO_SMILES>
CC(=O)NCCCS(=O)(=O)OCC(C)(C)[C@H](C(=O)OCCOC(=O)C1CCCCC1)OP(=O)(O)O

> <PUBCHEM_CACTVS_TPSA>
200

> <PUBCHEM_MONOISOTOPIC_WEIGHT>
545.16958375

> <PUBCHEM_TOTAL_CHARGE>
0

> <PUBCHEM_HEAVY_ATOM_COUNT>
35

> <PUBCHEM_ATOM_DEF_STEREO_COUNT>
1

> <PUBCHEM_ATOM_UDEF_STEREO_COUNT>
0

> <PUBCHEM_BOND_DEF_STEREO_COUNT>
0

> <PUBCHEM_BOND_UDEF_STEREO_COUNT>
0

> <PUBCHEM_ISOTOPIC_ATOM_COUNT>
0

> <PUBCHEM_COMPONENT_COUNT>
1

> <PUBCHEM_CACTVS_TAUTO_COUNT>
-1

> <PUBCHEM_COORDINATE_TYPE>
1
5
255

> <PUBCHEM_BONDANNOTATIONS>
23  5  6

$$$$
