 
  -OEChem-10192104282D

 76 80  0     0  0  0  0  0  0999 V2000
    8.8222   -2.3684    0.0000 O   0  0  0  0  0  0  0  0  0  0  0  0
    3.6255   -2.3588    0.0000 O   0  0  0  0  0  0  0  0  0  0  0  0
    8.8055    2.3588    0.0000 O   0  0  0  0  0  0  0  0  0  0  0  0
    3.6032    2.3588    0.0000 O   0  0  0  0  0  0  0  0  0  0  0  0
    4.4930   -3.8615    0.0000 O   0  0  0  0  0  0  0  0  0  0  0  0
    9.4564    1.7550    0.0000 O   0  0  0  0  0  0  0  0  0  0  0  0
    3.0009    1.7447    0.0000 O   0  0  0  0  0  0  0  0  0  0  0  0
    4.4708    3.8615    0.0000 O   0  0  0  0  0  0  0  0  0  0  0  0
    7.9602   -3.8615    0.0000 O   0  0  0  0  0  0  0  0  0  0  0  0
    9.4746   -1.7224    0.0000 O   0  0  0  0  0  0  0  0  0  0  0  0
    3.0009   -1.7224    0.0000 O   0  0  0  0  0  0  0  0  0  0  0  0
    7.9379    3.8615    0.0000 O   0  0  0  0  0  0  0  0  0  0  0  0
    7.9617   -1.8588    0.0000 C   0  0  0  0  0  0  0  0  0  0  0  0
    4.4915   -1.8588    0.0000 C   0  0  0  0  0  0  0  0  0  0  0  0
    7.9395    1.8588    0.0000 C   0  0  0  0  0  0  0  0  0  0  0  0
    4.4693    1.8588    0.0000 C   0  0  0  0  0  0  0  0  0  0  0  0
    7.0942   -2.3597    0.0000 C   0  0  0  0  0  0  0  0  0  0  0  0
    7.9729   -0.8564    0.0000 C   0  0  0  0  0  0  0  0  0  0  0  0
    4.5026   -0.8564    0.0000 C   0  0  0  0  0  0  0  0  0  0  0  0
    7.0719    2.3597    0.0000 C   0  0  0  0  0  0  0  0  0  0  0  0
    5.3591   -2.3597    0.0000 C   0  0  0  0  0  0  0  0  0  0  0  0
    7.9394    0.8571    0.0000 C   0  0  0  0  0  0  0  0  0  0  0  0
    4.4693    0.8571    0.0000 C   0  0  0  0  0  0  0  0  0  0  0  0
    5.3368    2.3597    0.0000 C   0  0  0  0  0  0  0  0  0  0  0  0
    6.2266   -1.8811    0.0000 C   0  0  0  0  0  0  0  0  0  0  0  0
    7.4720    0.0111    0.0000 C   0  0  0  0  0  0  0  0  0  0  0  0
    5.0035    0.0111    0.0000 C   0  0  0  0  0  0  0  0  0  0  0  0
    6.2044    1.8588    0.0000 C   0  0  0  0  0  0  0  0  0  0  0  0
    5.3591   -3.3615    0.0000 C   0  0  0  0  0  0  0  0  0  0  0  0
    8.9746    0.8787    0.0000 C   0  0  0  0  0  0  0  0  0  0  0  0
    3.5009    0.8787    0.0000 C   0  0  0  0  0  0  0  0  0  0  0  0
    5.3368    3.3615    0.0000 C   0  0  0  0  0  0  0  0  0  0  0  0
    7.0942   -3.3615    0.0000 C   0  0  0  0  0  0  0  0  0  0  0  0
    8.9746   -0.8564    0.0000 C   0  0  0  0  0  0  0  0  0  0  0  0
    3.5009   -0.8564    0.0000 C   0  0  0  0  0  0  0  0  0  0  0  0
    7.0719    3.3615    0.0000 C   0  0  0  0  0  0  0  0  0  0  0  0
    6.2266   -3.8624    0.0000 C   0  0  0  0  0  0  0  0  0  0  0  0
    9.4755    0.0111    0.0000 C   0  0  0  0  0  0  0  0  0  0  0  0
    3.0000    0.0111    0.0000 C   0  0  0  0  0  0  0  0  0  0  0  0
    6.2044    3.8624    0.0000 C   0  0  0  0  0  0  0  0  0  0  0  0
    6.2266   -4.8624    0.0000 C   0  0  0  0  0  0  0  0  0  0  0  0
   10.4755    0.0111    0.0000 C   0  0  0  0  0  0  0  0  0  0  0  0
    2.0000    0.0111    0.0000 C   0  0  0  0  0  0  0  0  0  0  0  0
    6.2044    4.8624    0.0000 C   0  0  0  0  0  0  0  0  0  0  0  0
    8.5021   -1.5548    0.0000 H   0  0  0  0  0  0  0  0  0  0  0  0
    3.9563   -1.5459    0.0000 H   0  0  0  0  0  0  0  0  0  0  0  0
    8.4764    1.5488    0.0000 H   0  0  0  0  0  0  0  0  0  0  0  0
    3.9323    1.5488    0.0000 H   0  0  0  0  0  0  0  0  0  0  0  0
    6.2266   -1.2611    0.0000 H   0  0  0  0  0  0  0  0  0  0  0  0
    6.8520    0.0053    0.0000 H   0  0  0  0  0  0  0  0  0  0  0  0
    5.6234    0.0234    0.0000 H   0  0  0  0  0  0  0  0  0  0  0  0
    6.2044    1.2388    0.0000 H   0  0  0  0  0  0  0  0  0  0  0  0
    5.6066   -4.8624    0.0000 H   0  0  0  0  0  0  0  0  0  0  0  0
    6.2266   -5.4824    0.0000 H   0  0  0  0  0  0  0  0  0  0  0  0
    6.8466   -4.8624    0.0000 H   0  0  0  0  0  0  0  0  0  0  0  0
   10.4755   -0.6089    0.0000 H   0  0  0  0  0  0  0  0  0  0  0  0
   11.0955    0.0111    0.0000 H   0  0  0  0  0  0  0  0  0  0  0  0
   10.4755    0.6311    0.0000 H   0  0  0  0  0  0  0  0  0  0  0  0
    2.0000    0.6311    0.0000 H   0  0  0  0  0  0  0  0  0  0  0  0
    1.3800    0.0111    0.0000 H   0  0  0  0  0  0  0  0  0  0  0  0
    2.0000   -0.6089    0.0000 H   0  0  0  0  0  0  0  0  0  0  0  0
    6.8244    4.8624    0.0000 H   0  0  0  0  0  0  0  0  0  0  0  0
    6.2044    5.4824    0.0000 H   0  0  0  0  0  0  0  0  0  0  0  0
    5.5844    4.8624    0.0000 H   0  0  0  0  0  0  0  0  0  0  0  0
    8.8153   -2.9884    0.0000 H   0  0  0  0  0  0  0  0  0  0  0  0
    3.6255   -2.9788    0.0000 H   0  0  0  0  0  0  0  0  0  0  0  0
    8.8055    2.9788    0.0000 H   0  0  0  0  0  0  0  0  0  0  0  0
    3.6032    2.9788    0.0000 H   0  0  0  0  0  0  0  0  0  0  0  0
    4.4930   -4.4815    0.0000 H   0  0  0  0  0  0  0  0  0  0  0  0
   10.0763    1.7679    0.0000 H   0  0  0  0  0  0  0  0  0  0  0  0
    2.3809    1.7447    0.0000 H   0  0  0  0  0  0  0  0  0  0  0  0
    4.4708    4.4815    0.0000 H   0  0  0  0  0  0  0  0  0  0  0  0
    7.9602   -4.4815    0.0000 H   0  0  0  0  0  0  0  0  0  0  0  0
   10.0946   -1.7224    0.0000 H   0  0  0  0  0  0  0  0  0  0  0  0
    2.3809   -1.7224    0.0000 H   0  0  0  0  0  0  0  0  0  0  0  0
    7.9379    4.4815    0.0000 H   0  0  0  0  0  0  0  0  0  0  0  0
  1 13  1  0  0  0  0
  1 65  1  0  0  0  0
  2 14  1  0  0  0  0
  2 66  1  0  0  0  0
  3 15  1  0  0  0  0
  3 67  1  0  0  0  0
  4 16  1  0  0  0  0
  4 68  1  0  0  0  0
  5 29  1  0  0  0  0
  5 69  1  0  0  0  0
  6 30  1  0  0  0  0
  6 70  1  0  0  0  0
  7 31  1  0  0  0  0
  7 71  1  0  0  0  0
  8 32  1  0  0  0  0
  8 72  1  0  0  0  0
  9 33  1  0  0  0  0
  9 73  1  0  0  0  0
 10 34  1  0  0  0  0
 10 74  1  0  0  0  0
 11 35  1  0  0  0  0
 11 75  1  0  0  0  0
 12 36  1  0  0  0  0
 12 76  1  0  0  0  0
 13 17  1  0  0  0  0
 13 18  1  0  0  0  0
 13 45  1  0  0  0  0
 14 19  1  0  0  0  0
 14 21  1  0  0  0  0
 14 46  1  0  0  0  0
 15 20  1  0  0  0  0
 15 22  1  0  0  0  0
 15 47  1  0  0  0  0
 16 23  1  0  0  0  0
 16 24  1  0  0  0  0
 16 48  1  0  0  0  0
 17 25  2  0  0  0  0
 17 33  1  0  0  0  0
 18 26  2  0  0  0  0
 18 34  1  0  0  0  0
 19 27  2  0  0  0  0
 19 35  1  0  0  0  0
 20 28  2  0  0  0  0
 20 36  1  0  0  0  0
 21 25  1  0  0  0  0
 21 29  2  0  0  0  0
 22 26  1  0  0  0  0
 22 30  2  0  0  0  0
 23 27  1  0  0  0  0
 23 31  2  0  0  0  0
 24 28  1  0  0  0  0
 24 32  2  0  0  0  0
 25 49  1  0  0  0  0
 26 50  1  0  0  0  0
 27 51  1  0  0  0  0
 28 52  1  0  0  0  0
 29 37  1  0  0  0  0
 30 38  1  0  0  0  0
 31 39  1  0  0  0  0
 32 40  1  0  0  0  0
 33 37  2  0  0  0  0
 34 38  2  0  0  0  0
 35 39  2  0  0  0  0
 36 40  2  0  0  0  0
 37 41  1  0  0  0  0
 38 42  1  0  0  0  0
 39 43  1  0  0  0  0
 40 44  1  0  0  0  0
 41 53  1  0  0  0  0
 41 54  1  0  0  0  0
 41 55  1  0  0  0  0
 42 56  1  0  0  0  0
 42 57  1  0  0  0  0
 42 58  1  0  0  0  0
 43 59  1  0  0  0  0
 43 60  1  0  0  0  0
 43 61  1  0  0  0  0
 44 62  1  0  0  0  0
 44 63  1  0  0  0  0
 44 64  1  0  0  0  0
M  END
> <PUBCHEM_COMPOUND_CID>
102023794

> <PUBCHEM_COMPOUND_CANONICALIZED>
1

> <PUBCHEM_CACTVS_COMPLEXITY>
771

> <PUBCHEM_CACTVS_HBOND_ACCEPTOR>
12

> <PUBCHEM_CACTVS_HBOND_DONOR>
12

> <PUBCHEM_CACTVS_ROTATABLE_BOND>
0

> <PUBCHEM_CACTVS_SUBSKEYS>
AAADcfB8PAAAAAAAAAAAAAAAAAAAAAAAAAAwYMGAAAAAAAABVAAAGgAACAAADBSgmAIyBoAAAgCAAiBCAAACAAAgIAAAiAAECIgINyKCERKAcAAlwBUImAeA4OQOIAACCAAIAABAAAQQABAAAAAAAAAAAA==

> <PUBCHEM_IUPAC_OPENEYE_NAME>
5,11,17,23-tetramethylpentacyclo[19.3.1.13,7.19,13.115,19]octacosa-1(25),3(28),4,6,9(27),10,12,15,17,19(26),21,23-dodecaene-2,4,6,8,10,12,14,16,18,20,22,24-dodecol

> <PUBCHEM_IUPAC_CAS_NAME>
5,11,17,23-tetramethylpentacyclo[19.3.1.13,7.19,13.115,19]octacosa-1(25),3(28),4,6,9(27),10,12,15,17,19(26),21,23-dodecaene-2,4,6,8,10,12,14,16,18,20,22,24-dodecol

> <PUBCHEM_IUPAC_NAME_MARKUP>
5,11,17,23-tetramethylpentacyclo[19.3.1.1<SUP>3,7</SUP>.1<SUP>9,13</SUP>.1<SUP>15,19</SUP>]octacosa-1(25),3(28),4,6,9(27),10,12,15,17,19(26),21,23-dodecaene-2,4,6,8,10,12,14,16,18,20,22,24-dodecol

> <PUBCHEM_IUPAC_NAME>
5,11,17,23-tetramethylpentacyclo[19.3.1.13,7.19,13.115,19]octacosa-1(25),3(28),4,6,9(27),10,12,15,17,19(26),21,23-dodecaene-2,4,6,8,10,12,14,16,18,20,22,24-dodecol

> <PUBCHEM_IUPAC_SYSTEMATIC_NAME>
5,11,17,23-tetramethylpentacyclo[19.3.1.13,7.19,13.115,19]octacosa-1(25),3(28),4,6,9(27),10,12,15,17,19(26),21,23-dodecaene-2,4,6,8,10,12,14,16,18,20,22,24-dodecol

> <PUBCHEM_IUPAC_TRADITIONAL_NAME>
5,11,17,23-tetramethylpentacyclo[19.3.1.13,7.19,13.115,19]octacosa-1(25),3(28),4,6,9(27),10,12,15,17,19(26),21,23-dodecaene-2,4,6,8,10,12,14,16,18,20,22,24-dodecol

> <PUBCHEM_IUPAC_INCHI>
InChI=1S/C32H32O12/c1-9-21(33)13-5-14(22(9)34)30(42)16-7-18(26(38)11(3)24(16)36)32(44)20-8-19(27(39)12(4)28(20)40)31(43)17-6-15(29(13)41)23(35)10(2)25(17)37/h5-8,29-44H,1-4H3

> <PUBCHEM_IUPAC_INCHIKEY>
IJGCCUMBOKTIKV-UHFFFAOYSA-N

> <PUBCHEM_XLOGP3_AA>
1.9

> <PUBCHEM_EXACT_MASS>
608.18937645

> <PUBCHEM_MOLECULAR_FORMULA>
C32H32O12

> <PUBCHEM_MOLECULAR_WEIGHT>
608.6

> <PUBCHEM_OPENEYE_CAN_SMILES>
CC1=C(C2=CC(=C1O)C(C3=CC(=C(C(=C3O)C)O)C(C4=C(C(=C(C(=C4)C(C5=C(C(=C(C(=C5)C2O)O)C)O)O)O)C)O)O)O)O

> <PUBCHEM_OPENEYE_ISO_SMILES>
CC1=C(C2=CC(=C1O)C(C3=CC(=C(C(=C3O)C)O)C(C4=C(C(=C(C(=C4)C(C5=C(C(=C(C(=C5)C2O)O)C)O)O)O)C)O)O)O)O

> <PUBCHEM_CACTVS_TPSA>
243

> <PUBCHEM_MONOISOTOPIC_WEIGHT>
608.18937645

> <PUBCHEM_TOTAL_CHARGE>
0

> <PUBCHEM_HEAVY_ATOM_COUNT>
44

> <PUBCHEM_ATOM_DEF_STEREO_COUNT>
0

> <PUBCHEM_ATOM_UDEF_STEREO_COUNT>
0

> <PUBCHEM_BOND_DEF_STEREO_COUNT>
0

> <PUBCHEM_BOND_UDEF_STEREO_COUNT>
0

> <PUBCHEM_ISOTOPIC_ATOM_COUNT>
0

> <PUBCHEM_COMPONENT_COUNT>
1

> <PUBCHEM_CACTVS_TAUTO_COUNT>
-1

> <PUBCHEM_COORDINATE_TYPE>
1
5
255

> <PUBCHEM_BONDANNOTATIONS>
17  25  8
17  33  8
18  26  8
18  34  8
19  27  8
19  35  8
20  28  8
20  36  8
21  25  8
21  29  8
22  26  8
22  30  8
23  27  8
23  31  8
24  28  8
24  32  8
29  37  8
30  38  8
31  39  8
32  40  8
33  37  8
34  38  8
35  39  8
36  40  8

$$$$
