 
  -OEChem-10192104432D

 80 84  0     1  0  0  0  0  0999 V2000
    6.1847   -3.4688    0.0000 O   0  0  0  0  0  0  0  0  0  0  0  0
    2.5357   -2.4518    0.0000 O   0  0  0  0  0  0  0  0  0  0  0  0
    7.9222    2.7031    0.0000 O   0  0  0  0  0  0  0  0  0  0  0  0
   11.4608    0.6346    0.0000 O   0  0  0  0  0  0  0  0  0  0  0  0
   10.6064   -0.8720    0.0000 O   0  0  0  0  0  0  0  0  0  0  0  0
    7.0628   -0.8995    0.0000 C   0  0  2  0  0  0  0  0  0  0  0  0
    6.1968   -0.3995    0.0000 C   0  0  1  0  0  0  0  0  0  0  0  0
    5.2868   -0.9064    0.0000 C   0  0  2  0  0  0  0  0  0  0  0  0
    7.9288   -0.3995    0.0000 C   0  0  1  0  0  0  0  0  0  0  0  0
    5.2787   -1.9480    0.0000 C   0  0  1  0  0  0  0  0  0  0  0  0
    7.0789   -1.9410    0.0000 C   0  0  0  0  0  0  0  0  0  0  0  0
    6.1808   -2.4688    0.0000 C   0  0  1  0  0  0  0  0  0  0  0  0
    4.3433   -2.4977    0.0000 C   0  0  0  0  0  0  0  0  0  0  0  0
    7.9288    0.6005    0.0000 C   0  0  0  0  0  0  0  0  0  0  0  0
    6.1968    0.6005    0.0000 C   0  0  0  0  0  0  0  0  0  0  0  0
    4.3599   -0.3423    0.0000 C   0  0  0  0  0  0  0  0  0  0  0  0
    8.8228    1.1351    0.0000 C   0  0  2  0  0  0  0  0  0  0  0  0
    8.8228   -0.9342    0.0000 C   0  0  0  0  0  0  0  0  0  0  0  0
    9.7288    0.6213    0.0000 C   0  0  1  0  0  0  0  0  0  0  0  0
    7.7056   -1.6656    0.0000 C   0  0  0  0  0  0  0  0  0  0  0  0
    9.7288   -0.4203    0.0000 C   0  0  0  0  0  0  0  0  0  0  0  0
    3.4037   -1.9552    0.0000 C   0  0  2  0  0  0  0  0  0  0  0  0
    5.2945    0.0936    0.0000 C   0  0  0  0  0  0  0  0  0  0  0  0
    7.0628    1.1005    0.0000 C   0  0  0  0  0  0  0  0  0  0  0  0
    3.4120   -0.8702    0.0000 C   0  0  0  0  0  0  0  0  0  0  0  0
    8.2709   -1.3392    0.0000 C   0  0  0  0  0  0  0  0  0  0  0  0
    8.7977    2.2198    0.0000 C   0  0  2  0  0  0  0  0  0  0  0  0
   10.6726    1.1565    0.0000 C   0  0  0  0  0  0  0  0  0  0  0  0
    3.8467   -3.3656    0.0000 C   0  0  0  0  0  0  0  0  0  0  0  0
    4.8466   -3.3618    0.0000 C   0  0  0  0  0  0  0  0  0  0  0  0
    9.7288    2.7768    0.0000 C   0  0  1  0  0  0  0  0  0  0  0  0
   10.6726    2.2415    0.0000 C   0  0  0  0  0  0  0  0  0  0  0  0
   10.5987    0.1280    0.0000 C   0  0  0  0  0  0  0  0  0  0  0  0
    9.7173    3.7767    0.0000 C   0  0  0  0  0  0  0  0  0  0  0  0
    6.9329    0.0255    0.0000 H   0  0  0  0  0  0  0  0  0  0  0  0
    5.2820   -2.7980    0.0000 H   0  0  0  0  0  0  0  0  0  0  0  0
    7.2969   -2.5214    0.0000 H   0  0  0  0  0  0  0  0  0  0  0  0
    7.6880   -1.8255    0.0000 H   0  0  0  0  0  0  0  0  0  0  0  0
    6.7195   -2.7757    0.0000 H   0  0  0  0  0  0  0  0  0  0  0  0
    5.9847    1.1831    0.0000 H   0  0  0  0  0  0  0  0  0  0  0  0
    5.5862    0.4928    0.0000 H   0  0  0  0  0  0  0  0  0  0  0  0
    4.7681    0.1244    0.0000 H   0  0  0  0  0  0  0  0  0  0  0  0
    3.9700    0.1398    0.0000 H   0  0  0  0  0  0  0  0  0  0  0  0
    8.0786    1.5459    0.0000 H   0  0  0  0  0  0  0  0  0  0  0  0
    8.4182   -1.4040    0.0000 H   0  0  0  0  0  0  0  0  0  0  0  0
    9.2164   -1.4132    0.0000 H   0  0  0  0  0  0  0  0  0  0  0  0
    7.2306   -2.0641    0.0000 H   0  0  0  0  0  0  0  0  0  0  0  0
    8.1041   -2.1405    0.0000 H   0  0  0  0  0  0  0  0  0  0  0  0
    8.1805   -1.2670    0.0000 H   0  0  0  0  0  0  0  0  0  0  0  0
    9.9379   -1.0040    0.0000 H   0  0  0  0  0  0  0  0  0  0  0  0
   10.3397   -0.3142    0.0000 H   0  0  0  0  0  0  0  0  0  0  0  0
    2.8686   -1.6421    0.0000 H   0  0  0  0  0  0  0  0  0  0  0  0
    5.9145    0.0888    0.0000 H   0  0  0  0  0  0  0  0  0  0  0  0
    5.2993    0.7136    0.0000 H   0  0  0  0  0  0  0  0  0  0  0  0
    4.6745    0.0984    0.0000 H   0  0  0  0  0  0  0  0  0  0  0  0
    7.0628    1.7205    0.0000 H   0  0  0  0  0  0  0  0  0  0  0  0
    3.2075   -0.2849    0.0000 H   0  0  0  0  0  0  0  0  0  0  0  0
    2.8004   -0.9716    0.0000 H   0  0  0  0  0  0  0  0  0  0  0  0
    7.6884   -1.5513    0.0000 H   0  0  0  0  0  0  0  0  0  0  0  0
    8.4830   -1.9218    0.0000 H   0  0  0  0  0  0  0  0  0  0  0  0
    8.8535   -1.1271    0.0000 H   0  0  0  0  0  0  0  0  0  0  0  0
    8.2674    1.8985    0.0000 H   0  0  0  0  0  0  0  0  0  0  0  0
   10.8817    0.5728    0.0000 H   0  0  0  0  0  0  0  0  0  0  0  0
   11.2835    1.2626    0.0000 H   0  0  0  0  0  0  0  0  0  0  0  0
    3.3085   -3.0577    0.0000 H   0  0  0  0  0  0  0  0  0  0  0  0
    3.5387   -3.9038    0.0000 H   0  0  0  0  0  0  0  0  0  0  0  0
    4.3848   -3.6736    0.0000 H   0  0  0  0  0  0  0  0  0  0  0  0
    4.3109   -3.6738    0.0000 H   0  0  0  0  0  0  0  0  0  0  0  0
    5.1587   -3.8975    0.0000 H   0  0  0  0  0  0  0  0  0  0  0  0
    5.3824   -3.0497    0.0000 H   0  0  0  0  0  0  0  0  0  0  0  0
   10.2628    3.0919    0.0000 H   0  0  0  0  0  0  0  0  0  0  0  0
   11.2835    2.1354    0.0000 H   0  0  0  0  0  0  0  0  0  0  0  0
   10.8817    2.8252    0.0000 H   0  0  0  0  0  0  0  0  0  0  0  0
    6.7228   -3.7767    0.0000 H   0  0  0  0  0  0  0  0  0  0  0  0
    2.0000   -2.1398    0.0000 H   0  0  0  0  0  0  0  0  0  0  0  0
   10.3372    3.7839    0.0000 H   0  0  0  0  0  0  0  0  0  0  0  0
    9.7101    4.3967    0.0000 H   0  0  0  0  0  0  0  0  0  0  0  0
    9.0973    3.7695    0.0000 H   0  0  0  0  0  0  0  0  0  0  0  0
    7.9102    3.3230    0.0000 H   0  0  0  0  0  0  0  0  0  0  0  0
   12.0001    0.3288    0.0000 H   0  0  0  0  0  0  0  0  0  0  0  0
 12  1  1  1  0  0  0
  1 74  1  0  0  0  0
 22  2  1  1  0  0  0
  2 75  1  0  0  0  0
 27  3  1  1  0  0  0
  3 79  1  0  0  0  0
  4 33  1  0  0  0  0
  4 80  1  0  0  0  0
  5 33  2  0  0  0  0
  6  7  1  0  0  0  0
  6  9  1  0  0  0  0
  6 11  1  0  0  0  0
  6 20  1  1  0  0  0
  7  8  1  0  0  0  0
  7 15  1  0  0  0  0
  7 35  1  6  0  0  0
  8 10  1  0  0  0  0
  8 16  1  0  0  0  0
  8 23  1  1  0  0  0
  9 14  1  0  0  0  0
  9 18  1  0  0  0  0
  9 26  1  6  0  0  0
 10 12  1  0  0  0  0
 10 13  1  0  0  0  0
 10 36  1  6  0  0  0
 11 12  1  0  0  0  0
 11 37  1  0  0  0  0
 11 38  1  0  0  0  0
 12 39  1  0  0  0  0
 13 22  1  0  0  0  0
 13 29  1  0  0  0  0
 13 30  1  0  0  0  0
 14 17  1  0  0  0  0
 14 24  2  0  0  0  0
 15 24  1  0  0  0  0
 15 40  1  0  0  0  0
 15 41  1  0  0  0  0
 16 25  1  0  0  0  0
 16 42  1  0  0  0  0
 16 43  1  0  0  0  0
 17 19  1  0  0  0  0
 17 27  1  0  0  0  0
 17 44  1  6  0  0  0
 18 21  1  0  0  0  0
 18 45  1  0  0  0  0
 18 46  1  0  0  0  0
 19 21  1  0  0  0  0
 19 28  1  0  0  0  0
 19 33  1  1  0  0  0
 20 47  1  0  0  0  0
 20 48  1  0  0  0  0
 20 49  1  0  0  0  0
 21 50  1  0  0  0  0
 21 51  1  0  0  0  0
 22 25  1  0  0  0  0
 22 52  1  0  0  0  0
 23 53  1  0  0  0  0
 23 54  1  0  0  0  0
 23 55  1  0  0  0  0
 24 56  1  0  0  0  0
 25 57  1  0  0  0  0
 25 58  1  0  0  0  0
 26 59  1  0  0  0  0
 26 60  1  0  0  0  0
 26 61  1  0  0  0  0
 27 31  1  0  0  0  0
 27 62  1  0  0  0  0
 28 32  1  0  0  0  0
 28 63  1  0  0  0  0
 28 64  1  0  0  0  0
 29 65  1  0  0  0  0
 29 66  1  0  0  0  0
 29 67  1  0  0  0  0
 30 68  1  0  0  0  0
 30 69  1  0  0  0  0
 30 70  1  0  0  0  0
 31 32  1  0  0  0  0
 31 34  1  6  0  0  0
 31 71  1  0  0  0  0
 32 72  1  0  0  0  0
 32 73  1  0  0  0  0
 34 76  1  0  0  0  0
 34 77  1  0  0  0  0
 34 78  1  0  0  0  0
M  END
> <PUBCHEM_COMPOUND_CID>
44559235

> <PUBCHEM_COMPOUND_CANONICALIZED>
1

> <PUBCHEM_CACTVS_COMPLEXITY>
910

> <PUBCHEM_CACTVS_HBOND_ACCEPTOR>
5

> <PUBCHEM_CACTVS_HBOND_DONOR>
4

> <PUBCHEM_CACTVS_ROTATABLE_BOND>
1

> <PUBCHEM_CACTVS_SUBSKEYS>
AAADcfB4OAAAAAAAAAAAAAAAAAAAAAAAAAAwYMGCAAAAAADAAAAAGgAACAAADxSggAICCAAAAgCIAiDSCAAAAAAgAAAACAEAAAgAEBIAAQAAQAAEwAAIAAPKyPCPgAAAAAAAAADAAAYAADAAAAAAAAAAAA==

> <PUBCHEM_IUPAC_OPENEYE_NAME>
(1S,2R,4aS,6aR,6aS,6bR,8R,8aR,10S,12aR,14bR)-1,8,10-trihydroxy-2,6a,6b,9,9,12a-hexamethyl-2,3,4,5,6,6a,7,8,8a,10,11,12,13,14b-tetradecahydro-1H-picene-4a-carboxylic acid

> <PUBCHEM_IUPAC_CAS_NAME>
(1S,2R,4aS,6aR,6aS,6bR,8R,8aR,10S,12aR,14bR)-1,8,10-trihydroxy-2,6a,6b,9,9,12a-hexamethyl-2,3,4,5,6,6a,7,8,8a,10,11,12,13,14b-tetradecahydro-1H-picene-4a-carboxylic acid

> <PUBCHEM_IUPAC_NAME_MARKUP>
(1<I>S</I>,2<I>R</I>,4<I>a</I><I>S</I>,6<I>a</I><I>R</I>,6<I>a</I><I>S</I>,6<I>b</I><I>R</I>,8<I>R</I>,8<I>a</I><I>R</I>,10<I>S</I>,12<I>a</I><I>R</I>,14<I>b</I><I>R</I>)-1,8,10-trihydroxy-2,6<I>a</I>,6<I>b</I>,9,9,12<I>a</I>-hexamethyl-2,3,4,5,6,6<I>a</I>,7,8,8<I>a</I>,10,11,12,13,14<I>b</I>-tetradecahydro-1<I>H</I>-picene-4<I>a</I>-carboxylic acid

> <PUBCHEM_IUPAC_NAME>
(1S,2R,4aS,6aR,6aS,6bR,8R,8aR,10S,12aR,14bR)-1,8,10-trihydroxy-2,6a,6b,9,9,12a-hexamethyl-2,3,4,5,6,6a,7,8,8a,10,11,12,13,14b-tetradecahydro-1H-picene-4a-carboxylic acid

> <PUBCHEM_IUPAC_SYSTEMATIC_NAME>
(1S,2R,4aS,6aR,6aS,6bR,8R,8aR,10S,12aR,14bR)-2,6a,6b,9,9,12a-hexamethyl-1,8,10-tris(oxidanyl)-2,3,4,5,6,6a,7,8,8a,10,11,12,13,14b-tetradecahydro-1H-picene-4a-carboxylic acid

> <PUBCHEM_IUPAC_TRADITIONAL_NAME>
(1S,2R,4aS,6aR,6aS,6bR,8R,8aR,10S,12aR,14bR)-1,8,10-trihydroxy-2,6a,6b,9,9,12a-hexamethyl-2,3,4,5,6,6a,7,8,8a,10,11,12,13,14b-tetradecahydro-1H-picene-4a-carboxylic acid

> <PUBCHEM_IUPAC_INCHI>
InChI=1S/C29H46O5/c1-16-9-12-29(24(33)34)14-13-27(5)17(21(29)22(16)32)7-8-19-26(4)11-10-20(31)25(2,3)23(26)18(30)15-28(19,27)6/h7,16,18-23,30-32H,8-15H2,1-6H3,(H,33,34)/t16-,18-,19-,20+,21+,22+,23+,26-,27-,28-,29+/m1/s1

> <PUBCHEM_IUPAC_INCHIKEY>
QZBVMCYMCAADTG-XJHLJSHASA-N

> <PUBCHEM_XLOGP3_AA>
4.4

> <PUBCHEM_EXACT_MASS>
474.33452456

> <PUBCHEM_MOLECULAR_FORMULA>
C29H46O5

> <PUBCHEM_MOLECULAR_WEIGHT>
474.7

> <PUBCHEM_OPENEYE_CAN_SMILES>
CC1CCC2(CCC3(C(=CCC4C3(CC(C5C4(CCC(C5(C)C)O)C)O)C)C2C1O)C)C(=O)O

> <PUBCHEM_OPENEYE_ISO_SMILES>
C[C@@H]1CC[C@@]2(CC[C@@]3(C(=CC[C@H]4[C@]3(C[C@H]([C@@H]5[C@@]4(CC[C@@H](C5(C)C)O)C)O)C)[C@H]2[C@H]1O)C)C(=O)O

> <PUBCHEM_CACTVS_TPSA>
98

> <PUBCHEM_MONOISOTOPIC_WEIGHT>
474.33452456

> <PUBCHEM_TOTAL_CHARGE>
0

> <PUBCHEM_HEAVY_ATOM_COUNT>
34

> <PUBCHEM_ATOM_DEF_STEREO_COUNT>
11

> <PUBCHEM_ATOM_UDEF_STEREO_COUNT>
0

> <PUBCHEM_BOND_DEF_STEREO_COUNT>
0

> <PUBCHEM_BOND_UDEF_STEREO_COUNT>
0

> <PUBCHEM_ISOTOPIC_ATOM_COUNT>
0

> <PUBCHEM_COMPONENT_COUNT>
1

> <PUBCHEM_CACTVS_TAUTO_COUNT>
-1

> <PUBCHEM_COORDINATE_TYPE>
1
5
255

> <PUBCHEM_BONDANNOTATIONS>
12  1  5
10  36  6
17  44  6
19  33  5
22  2  5
27  3  5
31  34  6
6  20  5
7  35  6
8  23  5
9  26  6

$$$$
