 
  -OEChem-10192103442D

 62 64  0     1  0  0  0  0  0999 V2000
    6.0010    1.1979    0.0000 O   0  0  0  0  0  0  0  0  0  0  0  0
    4.2690   -0.8021    0.0000 O   0  0  0  0  0  0  0  0  0  0  0  0
    7.7331    1.1979    0.0000 O   0  0  0  0  0  0  0  0  0  0  0  0
    5.1350   -2.3021    0.0000 O   0  0  0  0  0  0  0  0  0  0  0  0
    7.2331    3.7367    0.0000 O   0  0  0  0  0  0  0  0  0  0  0  0
    6.0010   -1.8021    0.0000 O   0  0  0  0  0  0  0  0  0  0  0  0
    7.7331   -0.8021    0.0000 O   0  0  0  0  0  0  0  0  0  0  0  0
    2.5369   -1.8021    0.0000 O   0  0  0  0  0  0  0  0  0  0  0  0
    9.4932    2.4766    0.0000 O   0  0  0  0  0  0  0  0  0  0  0  0
    2.5369   -3.8021    0.0000 O   0  0  0  0  0  0  0  0  0  0  0  0
    4.2690   -4.8021    0.0000 O   0  0  0  0  0  0  0  0  0  0  0  0
    8.8209    4.5457    0.0000 O   0  0  0  0  0  0  0  0  0  0  0  0
    4.2690    2.1979    0.0000 O   0  0  0  0  0  0  0  0  0  0  0  0
    5.2299    3.1458    0.0000 O   0  0  0  0  0  0  0  0  0  0  0  0
    6.8671   -3.3021    0.0000 O   0  0  0  0  0  0  0  0  0  0  0  0
    5.1350   -0.3021    0.0000 C   0  0  2  0  0  0  0  0  0  0  0  0
    6.0010   -0.8021    0.0000 C   0  0  1  0  0  0  0  0  0  0  0  0
    6.8671   -0.3021    0.0000 C   0  0  2  0  0  0  0  0  0  0  0  0
    5.1350    0.6979    0.0000 C   0  0  1  0  0  0  0  0  0  0  0  0
    6.8671    0.6979    0.0000 C   0  0  1  0  0  0  0  0  0  0  0  0
    7.7331    2.1979    0.0000 C   0  0  2  0  0  0  0  0  0  0  0  0
    4.2690   -1.8021    0.0000 C   0  0  2  0  0  0  0  0  0  0  0  0
    3.4030   -2.3021    0.0000 C   0  0  1  0  0  0  0  0  0  0  0  0
    6.9241    2.7857    0.0000 C   0  0  1  0  0  0  0  0  0  0  0  0
    8.5421    2.7857    0.0000 C   0  0  1  0  0  0  0  0  0  0  0  0
    3.4030   -3.3021    0.0000 C   0  0  2  0  0  0  0  0  0  0  0  0
    4.2690   -3.8021    0.0000 C   0  0  2  0  0  0  0  0  0  0  0  0
    5.1350   -3.3021    0.0000 C   0  0  1  0  0  0  0  0  0  0  0  0
    8.2331    3.7367    0.0000 C   0  0  1  0  0  0  0  0  0  0  0  0
    4.2690    1.1979    0.0000 C   0  0  0  0  0  0  0  0  0  0  0  0
    5.9730    2.4766    0.0000 C   0  0  0  0  0  0  0  0  0  0  0  0
    6.0010   -3.8021    0.0000 C   0  0  0  0  0  0  0  0  0  0  0  0
    5.1350   -0.9221    0.0000 H   0  0  0  0  0  0  0  0  0  0  0  0
    5.4641   -1.1121    0.0000 H   0  0  0  0  0  0  0  0  0  0  0  0
    6.8671   -0.9221    0.0000 H   0  0  0  0  0  0  0  0  0  0  0  0
    5.1350    1.3179    0.0000 H   0  0  0  0  0  0  0  0  0  0  0  0
    7.4040    0.3879    0.0000 H   0  0  0  0  0  0  0  0  0  0  0  0
    7.1807    1.9164    0.0000 H   0  0  0  0  0  0  0  0  0  0  0  0
    3.7320   -1.4921    0.0000 H   0  0  0  0  0  0  0  0  0  0  0  0
    3.4030   -1.6821    0.0000 H   0  0  0  0  0  0  0  0  0  0  0  0
    6.4857    3.2241    0.0000 H   0  0  0  0  0  0  0  0  0  0  0  0
    8.6391    2.1733    0.0000 H   0  0  0  0  0  0  0  0  0  0  0  0
    3.4030   -3.9221    0.0000 H   0  0  0  0  0  0  0  0  0  0  0  0
    4.8059   -4.1121    0.0000 H   0  0  0  0  0  0  0  0  0  0  0  0
    5.6720   -2.9921    0.0000 H   0  0  0  0  0  0  0  0  0  0  0  0
    8.8455    3.6397    0.0000 H   0  0  0  0  0  0  0  0  0  0  0  0
    3.6584    1.3055    0.0000 H   0  0  0  0  0  0  0  0  0  0  0  0
    4.0569    0.6153    0.0000 H   0  0  0  0  0  0  0  0  0  0  0  0
    5.4844    2.0949    0.0000 H   0  0  0  0  0  0  0  0  0  0  0  0
    6.2641    1.9292    0.0000 H   0  0  0  0  0  0  0  0  0  0  0  0
    6.5380   -2.1121    0.0000 H   0  0  0  0  0  0  0  0  0  0  0  0
    8.2700   -0.4921    0.0000 H   0  0  0  0  0  0  0  0  0  0  0  0
    5.6025   -4.2771    0.0000 H   0  0  0  0  0  0  0  0  0  0  0  0
    6.3996   -4.2771    0.0000 H   0  0  0  0  0  0  0  0  0  0  0  0
    2.0000   -2.1121    0.0000 H   0  0  0  0  0  0  0  0  0  0  0  0
    9.9539    2.8915    0.0000 H   0  0  0  0  0  0  0  0  0  0  0  0
    2.5369   -4.4221    0.0000 H   0  0  0  0  0  0  0  0  0  0  0  0
    4.8059   -5.1121    0.0000 H   0  0  0  0  0  0  0  0  0  0  0  0
    8.5687    5.1121    0.0000 H   0  0  0  0  0  0  0  0  0  0  0  0
    3.7320    2.5079    0.0000 H   0  0  0  0  0  0  0  0  0  0  0  0
    5.3588    3.7522    0.0000 H   0  0  0  0  0  0  0  0  0  0  0  0
    7.4040   -3.6121    0.0000 H   0  0  0  0  0  0  0  0  0  0  0  0
  1 19  1  0  0  0  0
  1 20  1  0  0  0  0
 16  2  1  1  0  0  0
 22  2  1  6  0  0  0
 20  3  1  1  0  0  0
 21  3  1  6  0  0  0
  4 22  1  0  0  0  0
  4 28  1  0  0  0  0
  5 24  1  0  0  0  0
  5 29  1  0  0  0  0
 17  6  1  1  0  0  0
  6 51  1  0  0  0  0
 18  7  1  6  0  0  0
  7 52  1  0  0  0  0
 23  8  1  1  0  0  0
  8 55  1  0  0  0  0
 25  9  1  1  0  0  0
  9 56  1  0  0  0  0
 26 10  1  6  0  0  0
 10 57  1  0  0  0  0
 27 11  1  6  0  0  0
 11 58  1  0  0  0  0
 29 12  1  1  0  0  0
 12 59  1  0  0  0  0
 13 30  1  0  0  0  0
 13 60  1  0  0  0  0
 14 31  1  0  0  0  0
 14 61  1  0  0  0  0
 15 32  1  0  0  0  0
 15 62  1  0  0  0  0
 16 17  1  0  0  0  0
 16 19  1  0  0  0  0
 16 33  1  0  0  0  0
 17 18  1  0  0  0  0
 17 34  1  0  0  0  0
 18 20  1  0  0  0  0
 18 35  1  0  0  0  0
 19 30  1  1  0  0  0
 19 36  1  0  0  0  0
 20 37  1  0  0  0  0
 21 24  1  0  0  0  0
 21 25  1  0  0  0  0
 21 38  1  0  0  0  0
 22 23  1  0  0  0  0
 22 39  1  0  0  0  0
 23 26  1  0  0  0  0
 23 40  1  0  0  0  0
 24 31  1  1  0  0  0
 24 41  1  0  0  0  0
 25 29  1  0  0  0  0
 25 42  1  0  0  0  0
 26 27  1  0  0  0  0
 26 43  1  0  0  0  0
 27 28  1  0  0  0  0
 27 44  1  0  0  0  0
 28 32  1  6  0  0  0
 28 45  1  0  0  0  0
 29 46  1  0  0  0  0
 30 47  1  0  0  0  0
 30 48  1  0  0  0  0
 31 49  1  0  0  0  0
 31 50  1  0  0  0  0
 32 53  1  0  0  0  0
 32 54  1  0  0  0  0
M  END
> <PUBCHEM_COMPOUND_CID>
91846701

> <PUBCHEM_COMPOUND_CANONICALIZED>
1

> <PUBCHEM_CACTVS_COMPLEXITY>
596

> <PUBCHEM_CACTVS_HBOND_ACCEPTOR>
15

> <PUBCHEM_CACTVS_HBOND_DONOR>
10

> <PUBCHEM_CACTVS_ROTATABLE_BOND>
7

> <PUBCHEM_CACTVS_SUBSKEYS>
AAADceB4PAAAAAAAAAAAAAAAAAAAASAAAAAkSAAAAAAAAAAAAAAAGgAACAAACBSwgAMACAAABgAAAAAAAAAAAAAAAAAAAAAAAAAREAIAAAAiQAAFAAAHAAHAYAwAAAAAAAAAAAAAAAAAAAAAAAAAAAAAAA==

> <PUBCHEM_IUPAC_OPENEYE_NAME>
(2S,3R,4S,5R,6R)-2-[(2R,3R,4R,5R,6S)-6-[(2R,3S,4S,5R)-4,5-dihydroxy-2-(hydroxymethyl)tetrahydrofuran-3-yl]oxy-4,5-dihydroxy-2-(hydroxymethyl)tetrahydropyran-3-yl]oxy-6-(hydroxymethyl)tetrahydropyran-3,4,5-triol

> <PUBCHEM_IUPAC_CAS_NAME>
(2S,3R,4S,5R,6R)-2-[[(2R,3R,4R,5R,6S)-6-[[(2R,3S,4S,5R)-4,5-dihydroxy-2-(hydroxymethyl)-3-oxolanyl]oxy]-4,5-dihydroxy-2-(hydroxymethyl)-3-oxanyl]oxy]-6-(hydroxymethyl)oxane-3,4,5-triol

> <PUBCHEM_IUPAC_NAME_MARKUP>
(2<I>S</I>,3<I>R</I>,4<I>S</I>,5<I>R</I>,6<I>R</I>)-2-[(2<I>R</I>,3<I>R</I>,4<I>R</I>,5<I>R</I>,6<I>S</I>)-6-[(2<I>R</I>,3<I>S</I>,4<I>S</I>,5<I>R</I>)-4,5-dihydroxy-2-(hydroxymethyl)oxolan-3-yl]oxy-4,5-dihydroxy-2-(hydroxymethyl)oxan-3-yl]oxy-6-(hydroxymethyl)oxane-3,4,5-triol

> <PUBCHEM_IUPAC_NAME>
(2S,3R,4S,5R,6R)-2-[(2R,3R,4R,5R,6S)-6-[(2R,3S,4S,5R)-4,5-dihydroxy-2-(hydroxymethyl)oxolan-3-yl]oxy-4,5-dihydroxy-2-(hydroxymethyl)oxan-3-yl]oxy-6-(hydroxymethyl)oxane-3,4,5-triol

> <PUBCHEM_IUPAC_SYSTEMATIC_NAME>
(2R,3R,4S,5R,6S)-2-(hydroxymethyl)-6-[(2R,3R,4R,5R,6S)-2-(hydroxymethyl)-6-[(2R,3S,4S,5R)-2-(hydroxymethyl)-4,5-bis(oxidanyl)oxolan-3-yl]oxy-4,5-bis(oxidanyl)oxan-3-yl]oxy-oxane-3,4,5-triol

> <PUBCHEM_IUPAC_TRADITIONAL_NAME>
(2S,3R,4S,5R,6R)-2-[(2R,3R,4R,5R,6S)-6-[(2R,3S,4S,5R)-4,5-dihydroxy-2-methylol-tetrahydrofuran-3-yl]oxy-4,5-dihydroxy-2-methylol-tetrahydropyran-3-yl]oxy-6-methylol-tetrahydropyran-3,4,5-triol

> <PUBCHEM_IUPAC_INCHI>
InChI=1S/C17H30O15/c18-1-4-7(21)8(22)10(24)16(29-4)31-13-6(3-20)30-17(11(25)9(13)23)32-14-5(2-19)28-15(27)12(14)26/h4-27H,1-3H2/t4-,5-,6-,7+,8+,9-,10-,11-,12+,13+,14-,15-,16+,17+/m1/s1

> <PUBCHEM_IUPAC_INCHIKEY>
HSTIIQZZFFHRFL-GIKTYAJYSA-N

> <PUBCHEM_XLOGP3_AA>
-6.3

> <PUBCHEM_EXACT_MASS>
474.15847025

> <PUBCHEM_MOLECULAR_FORMULA>
C17H30O15

> <PUBCHEM_MOLECULAR_WEIGHT>
474.4

> <PUBCHEM_OPENEYE_CAN_SMILES>
C(C1C(C(C(C(O1)OC2C(OC(C(C2O)O)OC3C(OC(C3O)O)CO)CO)O)O)O)O

> <PUBCHEM_OPENEYE_ISO_SMILES>
C([C@@H]1[C@@H]([C@@H]([C@H]([C@@H](O1)O[C@H]2[C@H](O[C@H]([C@@H]([C@H]2O)O)O[C@@H]3[C@H](O[C@H]([C@H]3O)O)CO)CO)O)O)O)O

> <PUBCHEM_CACTVS_TPSA>
248

> <PUBCHEM_MONOISOTOPIC_WEIGHT>
474.15847025

> <PUBCHEM_TOTAL_CHARGE>
0

> <PUBCHEM_HEAVY_ATOM_COUNT>
32

> <PUBCHEM_ATOM_DEF_STEREO_COUNT>
14

> <PUBCHEM_ATOM_UDEF_STEREO_COUNT>
0

> <PUBCHEM_BOND_DEF_STEREO_COUNT>
0

> <PUBCHEM_BOND_UDEF_STEREO_COUNT>
0

> <PUBCHEM_ISOTOPIC_ATOM_COUNT>
0

> <PUBCHEM_COMPONENT_COUNT>
1

> <PUBCHEM_CACTVS_TAUTO_COUNT>
-1

> <PUBCHEM_COORDINATE_TYPE>
1
5
255

> <PUBCHEM_BONDANNOTATIONS>
26  10  6
27  11  6
29  12  5
19  30  5
16  2  5
22  2  6
24  31  5
28  32  6
20  3  5
21  3  6
17  6  5
18  7  6
23  8  5
25  9  5

$$$$
