 
  -OEChem-10192104362D

 91 97  0     1  0  0  0  0  0999 V2000
    9.9802    2.4786    0.0000 O   0  0  0  0  0  0  0  0  0  0  0  0
   10.6370    0.0068    0.0000 O   0  0  0  0  0  0  0  0  0  0  0  0
   11.1521   -2.2356    0.0000 O   0  0  0  0  0  0  0  0  0  0  0  0
    6.3719    3.2438    0.0000 O   0  0  0  0  0  0  0  0  0  0  0  0
    8.5945   -2.2303    0.0000 O   0  0  0  0  0  0  0  0  0  0  0  0
    8.0390    1.5068    0.0000 O   0  0  0  0  0  0  0  0  0  0  0  0
    7.0390    0.7747    0.0000 O   0  0  0  0  0  0  0  0  0  0  0  0
   12.3526    1.4676    0.0000 O   0  0  0  0  0  0  0  0  0  0  0  0
    9.5615   -4.2655    0.0000 O   0  0  0  0  0  0  0  0  0  0  0  0
    4.8228    1.1821    0.0000 O   0  0  0  0  0  0  0  0  0  0  0  0
   12.9690    2.5816    0.0000 O   0  0  0  0  0  0  0  0  0  0  0  0
   12.9275   -2.6997    0.0000 O   0  0  0  0  0  0  0  0  0  0  0  0
    5.4641    4.8387    0.0000 O   0  0  0  0  0  0  0  0  0  0  0  0
   12.9690    6.0457    0.0000 O   0  0  0  0  0  0  0  0  0  0  0  0
   13.8241   -6.0457    0.0000 O   0  0  0  0  0  0  0  0  0  0  0  0
    2.0000    4.8387    0.0000 O   0  0  0  0  0  0  0  0  0  0  0  0
   11.4690    3.4476    0.0000 N   0  0  0  0  0  0  0  0  0  0  0  0
   11.7028   -3.9244    0.0000 N   0  0  0  0  0  0  0  0  0  0  0  0
    4.5981    3.3387    0.0000 N   0  0  0  0  0  0  0  0  0  0  0  0
   12.9690    4.3137    0.0000 N   0  0  0  0  0  0  0  0  0  0  0  0
   13.3758   -4.3727    0.0000 N   0  0  0  0  0  0  0  0  0  0  0  0
    3.7320    4.8387    0.0000 N   0  0  0  0  0  0  0  0  0  0  0  0
   10.6370    1.0068    0.0000 C   0  0  1  0  0  0  0  0  0  0  0  0
    9.7710    1.5068    0.0000 C   0  0  1  0  0  0  0  0  0  0  0  0
   10.2675   -1.7820    0.0000 C   0  0  1  0  0  0  0  0  0  0  0  0
   11.3741    1.6738    0.0000 C   0  0  2  0  0  0  0  0  0  0  0  0
    9.5604   -2.4891    0.0000 C   0  0  1  0  0  0  0  0  0  0  0  0
   10.9690    2.5816    0.0000 C   0  0  1  0  0  0  0  0  0  0  0  0
   10.0140   -3.3737    0.0000 C   0  0  2  0  0  0  0  0  0  0  0  0
   10.9957   -3.2173    0.0000 C   0  0  1  0  0  0  0  0  0  0  0  0
    6.5390    1.6407    0.0000 C   0  0  1  0  0  0  0  0  0  0  0  0
    7.0390    2.5067    0.0000 C   0  0  1  0  0  0  0  0  0  0  0  0
   10.0087   -0.8161    0.0000 C   0  0  0  0  0  0  0  0  0  0  0  0
    5.5672    1.8499    0.0000 C   0  0  2  0  0  0  0  0  0  0  0  0
    8.9050    1.0068    0.0000 C   0  0  0  0  0  0  0  0  0  0  0  0
    5.4641    2.8387    0.0000 C   0  0  1  0  0  0  0  0  0  0  0  0
    8.0390    2.5067    0.0000 C   0  0  0  0  0  0  0  0  0  0  0  0
    7.7284   -2.7303    0.0000 C   0  0  0  0  0  0  0  0  0  0  0  0
    6.7802   -0.1912    0.0000 C   0  0  0  0  0  0  0  0  0  0  0  0
    7.2284   -1.8643    0.0000 C   0  0  0  0  0  0  0  0  0  0  0  0
    7.4873   -0.8983    0.0000 C   0  0  0  0  0  0  0  0  0  0  0  0
   12.4690    3.4476    0.0000 C   0  0  0  0  0  0  0  0  0  0  0  0
   10.9690    4.3137    0.0000 C   0  0  0  0  0  0  0  0  0  0  0  0
   12.6687   -3.6656    0.0000 C   0  0  0  0  0  0  0  0  0  0  0  0
   11.4440   -4.8903    0.0000 C   0  0  0  0  0  0  0  0  0  0  0  0
    4.5981    4.3387    0.0000 C   0  0  0  0  0  0  0  0  0  0  0  0
    3.7320    2.8387    0.0000 C   0  0  0  0  0  0  0  0  0  0  0  0
   11.4690    5.1797    0.0000 C   0  0  0  0  0  0  0  0  0  0  0  0
   12.1511   -5.5974    0.0000 C   0  0  0  0  0  0  0  0  0  0  0  0
   12.4690    5.1797    0.0000 C   0  0  0  0  0  0  0  0  0  0  0  0
    2.8660    3.3387    0.0000 C   0  0  0  0  0  0  0  0  0  0  0  0
   13.1170   -5.3386    0.0000 C   0  0  0  0  0  0  0  0  0  0  0  0
    2.8660    4.3387    0.0000 C   0  0  0  0  0  0  0  0  0  0  0  0
   11.4140    0.6620    0.0000 H   0  0  0  0  0  0  0  0  0  0  0  0
    9.0840    2.0073    0.0000 H   0  0  0  0  0  0  0  0  0  0  0  0
   10.9288   -1.2479    0.0000 H   0  0  0  0  0  0  0  0  0  0  0  0
   11.7636    2.1562    0.0000 H   0  0  0  0  0  0  0  0  0  0  0  0
    9.0263   -3.1504    0.0000 H   0  0  0  0  0  0  0  0  0  0  0  0
   10.6315    3.1018    0.0000 H   0  0  0  0  0  0  0  0  0  0  0  0
    9.3940   -3.3750    0.0000 H   0  0  0  0  0  0  0  0  0  0  0  0
   11.5854   -3.0260    0.0000 H   0  0  0  0  0  0  0  0  0  0  0  0
    6.0385    0.9537    0.0000 H   0  0  0  0  0  0  0  0  0  0  0  0
    7.3837    3.2837    0.0000 H   0  0  0  0  0  0  0  0  0  0  0  0
    9.6094   -0.3417    0.0000 H   0  0  0  0  0  0  0  0  0  0  0  0
    9.4590   -1.1028    0.0000 H   0  0  0  0  0  0  0  0  0  0  0  0
    5.7263    1.2507    0.0000 H   0  0  0  0  0  0  0  0  0  0  0  0
    8.5065    0.5318    0.0000 H   0  0  0  0  0  0  0  0  0  0  0  0
    9.3035    0.5318    0.0000 H   0  0  0  0  0  0  0  0  0  0  0  0
    5.4963    3.4578    0.0000 H   0  0  0  0  0  0  0  0  0  0  0  0
    8.6590    2.5067    0.0000 H   0  0  0  0  0  0  0  0  0  0  0  0
    8.0390    3.1268    0.0000 H   0  0  0  0  0  0  0  0  0  0  0  0
    7.1915   -3.0403    0.0000 H   0  0  0  0  0  0  0  0  0  0  0  0
    8.0384   -3.2672    0.0000 H   0  0  0  0  0  0  0  0  0  0  0  0
   12.5452    0.8783    0.0000 H   0  0  0  0  0  0  0  0  0  0  0  0
    6.2182    0.0708    0.0000 H   0  0  0  0  0  0  0  0  0  0  0  0
    6.4245   -0.6991    0.0000 H   0  0  0  0  0  0  0  0  0  0  0  0
    6.6915   -1.5543    0.0000 H   0  0  0  0  0  0  0  0  0  0  0  0
    6.7900   -2.3027    0.0000 H   0  0  0  0  0  0  0  0  0  0  0  0
    8.0492   -1.1604    0.0000 H   0  0  0  0  0  0  0  0  0  0  0  0
    7.8429   -0.3905    0.0000 H   0  0  0  0  0  0  0  0  0  0  0  0
    8.9424   -4.2990    0.0000 H   0  0  0  0  0  0  0  0  0  0  0  0
    4.9507    0.5754    0.0000 H   0  0  0  0  0  0  0  0  0  0  0  0
   10.3490    4.3137    0.0000 H   0  0  0  0  0  0  0  0  0  0  0  0
   10.8451   -5.0508    0.0000 H   0  0  0  0  0  0  0  0  0  0  0  0
    3.7320    2.2187    0.0000 H   0  0  0  0  0  0  0  0  0  0  0  0
   13.5890    4.3137    0.0000 H   0  0  0  0  0  0  0  0  0  0  0  0
   11.1589    5.7166    0.0000 H   0  0  0  0  0  0  0  0  0  0  0  0
   13.9747   -4.2122    0.0000 H   0  0  0  0  0  0  0  0  0  0  0  0
   11.9906   -6.1963    0.0000 H   0  0  0  0  0  0  0  0  0  0  0  0
    3.7320    5.4587    0.0000 H   0  0  0  0  0  0  0  0  0  0  0  0
    2.3291    3.0287    0.0000 H   0  0  0  0  0  0  0  0  0  0  0  0
  1 24  1  0  0  0  0
  1 28  1  0  0  0  0
  2 23  1  0  0  0  0
  2 33  1  0  0  0  0
  3 25  1  0  0  0  0
  3 30  1  0  0  0  0
  4 32  1  0  0  0  0
  4 36  1  0  0  0  0
  5 27  1  0  0  0  0
  5 38  1  0  0  0  0
  6 35  1  0  0  0  0
  6 37  1  0  0  0  0
  7 31  1  0  0  0  0
  7 39  1  0  0  0  0
 26  8  1  6  0  0  0
  8 74  1  0  0  0  0
 29  9  1  6  0  0  0
  9 81  1  0  0  0  0
 34 10  1  1  0  0  0
 10 82  1  0  0  0  0
 11 42  2  0  0  0  0
 12 44  2  0  0  0  0
 13 46  2  0  0  0  0
 14 50  2  0  0  0  0
 15 52  2  0  0  0  0
 16 53  2  0  0  0  0
 28 17  1  1  0  0  0
 17 42  1  0  0  0  0
 17 43  1  0  0  0  0
 30 18  1  1  0  0  0
 18 44  1  0  0  0  0
 18 45  1  0  0  0  0
 36 19  1  6  0  0  0
 19 46  1  0  0  0  0
 19 47  1  0  0  0  0
 20 42  1  0  0  0  0
 20 50  1  0  0  0  0
 20 86  1  0  0  0  0
 21 44  1  0  0  0  0
 21 52  1  0  0  0  0
 21 88  1  0  0  0  0
 22 46  1  0  0  0  0
 22 53  1  0  0  0  0
 22 90  1  0  0  0  0
 23 24  1  0  0  0  0
 23 26  1  0  0  0  0
 23 54  1  6  0  0  0
 24 35  1  0  0  0  0
 24 55  1  6  0  0  0
 25 27  1  0  0  0  0
 25 33  1  0  0  0  0
 25 56  1  6  0  0  0
 26 28  1  0  0  0  0
 26 57  1  0  0  0  0
 27 29  1  0  0  0  0
 27 58  1  6  0  0  0
 28 59  1  0  0  0  0
 29 30  1  0  0  0  0
 29 60  1  0  0  0  0
 30 61  1  0  0  0  0
 31 32  1  0  0  0  0
 31 34  1  0  0  0  0
 31 62  1  1  0  0  0
 32 37  1  0  0  0  0
 32 63  1  1  0  0  0
 33 64  1  0  0  0  0
 33 65  1  0  0  0  0
 34 36  1  0  0  0  0
 34 66  1  0  0  0  0
 35 67  1  0  0  0  0
 35 68  1  0  0  0  0
 36 69  1  0  0  0  0
 37 70  1  0  0  0  0
 37 71  1  0  0  0  0
 38 40  1  0  0  0  0
 38 72  1  0  0  0  0
 38 73  1  0  0  0  0
 39 41  1  0  0  0  0
 39 75  1  0  0  0  0
 39 76  1  0  0  0  0
 40 41  1  0  0  0  0
 40 77  1  0  0  0  0
 40 78  1  0  0  0  0
 41 79  1  0  0  0  0
 41 80  1  0  0  0  0
 43 48  2  0  0  0  0
 43 83  1  0  0  0  0
 45 49  2  0  0  0  0
 45 84  1  0  0  0  0
 47 51  2  0  0  0  0
 47 85  1  0  0  0  0
 48 50  1  0  0  0  0
 48 87  1  0  0  0  0
 49 52  1  0  0  0  0
 49 89  1  0  0  0  0
 51 53  1  0  0  0  0
 51 91  1  0  0  0  0
M  END
> <PUBCHEM_COMPOUND_CID>
102593432

> <PUBCHEM_COMPOUND_CANONICALIZED>
1

> <PUBCHEM_CACTVS_COMPLEXITY>
1580

> <PUBCHEM_CACTVS_HBOND_ACCEPTOR>
16

> <PUBCHEM_CACTVS_HBOND_DONOR>
6

> <PUBCHEM_CACTVS_ROTATABLE_BOND>
3

> <PUBCHEM_CACTVS_SUBSKEYS>
AAADcfB7vgAAAAAAAAAAAAAAAAAAASJEgAAgQIAAAAAAAAAAAAAAHgAQCAAACBThgAYBAAPABgCIACFWUACAAAAAAgAIAAAIAECDEAIAgAAOQAAPFyITAMDwMAoAAAAAAAAAAAAAAAAAAAAAAAAAAAAAAA==

> <PUBCHEM_IUPAC_OPENEYE_NAME>
1-[(1R,4R,5R,6R,8R,12R,14R,15R,16R,23R,24R,25R)-6,25-bis(2,4-dioxopyrimidin-1-yl)-5,15,24-trihydroxy-3,7,10,13,17,22,26-heptaoxatetracyclo[21.3.0.04,8.012,16]hexacosan-14-yl]pyrimidine-2,4-dione

> <PUBCHEM_IUPAC_CAS_NAME>
1-[(1R,4R,5R,6R,8R,12R,14R,15R,16R,23R,24R,25R)-6,25-bis(2,4-dioxo-1-pyrimidinyl)-5,15,24-trihydroxy-3,7,10,13,17,22,26-heptaoxatetracyclo[21.3.0.04,8.012,16]hexacosan-14-yl]pyrimidine-2,4-dione

> <PUBCHEM_IUPAC_NAME_MARKUP>
1-[(1<I>R</I>,4<I>R</I>,5<I>R</I>,6<I>R</I>,8<I>R</I>,12<I>R</I>,14<I>R</I>,15<I>R</I>,16<I>R</I>,23<I>R</I>,24<I>R</I>,25<I>R</I>)-6,25-bis(2,4-dioxopyrimidin-1-yl)-5,15,24-trihydroxy-3,7,10,13,17,22,26-heptaoxatetracyclo[21.3.0.0<SUP>4,8</SUP>.0<SUP>12,16</SUP>]hexacosan-14-yl]pyrimidine-2,4-dione

> <PUBCHEM_IUPAC_NAME>
1-[(1R,4R,5R,6R,8R,12R,14R,15R,16R,23R,24R,25R)-6,25-bis(2,4-dioxopyrimidin-1-yl)-5,15,24-trihydroxy-3,7,10,13,17,22,26-heptaoxatetracyclo[21.3.0.04,8.012,16]hexacosan-14-yl]pyrimidine-2,4-dione

> <PUBCHEM_IUPAC_SYSTEMATIC_NAME>
1-[(1R,4R,5R,6R,8R,12R,14R,15R,16R,23R,24R,25R)-6,25-bis[2,4-bis(oxidanylidene)pyrimidin-1-yl]-5,15,24-tris(oxidanyl)-3,7,10,13,17,22,26-heptaoxatetracyclo[21.3.0.04,8.012,16]hexacosan-14-yl]pyrimidine-2,4-dione

> <PUBCHEM_IUPAC_TRADITIONAL_NAME>
1-[(1R,4R,5R,6R,8R,12R,14R,15R,16R,23R,24R,25R)-6,25-bis(2,4-diketopyrimidin-1-yl)-5,15,24-trihydroxy-3,7,10,13,17,22,26-heptaoxatetracyclo[21.3.0.04,8.012,16]hexacosan-14-yl]pyrimidine-2,4-quinone

> <PUBCHEM_IUPAC_INCHI>
InChI=1S/C31H38N6O16/c38-17-3-6-35(29(44)32-17)26-20(41)23-14(51-26)11-47-12-15-25(22(43)28(52-15)37-8-5-19(40)34-31(37)46)50-13-16-24(49-10-2-1-9-48-23)21(42)27(53-16)36-7-4-18(39)33-30(36)45/h3-8,14-16,20-28,41-43H,1-2,9-13H2,(H,32,38,44)(H,33,39,45)(H,34,40,46)/t14-,15-,16-,20-,21-,22-,23+,24+,25+,26-,27-,28-/m1/s1

> <PUBCHEM_IUPAC_INCHIKEY>
KJISCLIQEUQYQI-BMZRKZBWSA-N

> <PUBCHEM_XLOGP3_AA>
-5

> <PUBCHEM_EXACT_MASS>
750.23442915

> <PUBCHEM_MOLECULAR_FORMULA>
C31H38N6O16

> <PUBCHEM_MOLECULAR_WEIGHT>
750.7

> <PUBCHEM_OPENEYE_CAN_SMILES>
C1CCOC2C(COC3C(COCC4C(C(C(O4)N5C=CC(=O)NC5=O)O)OC1)OC(C3O)N6C=CC(=O)NC6=O)OC(C2O)N7C=CC(=O)NC7=O

> <PUBCHEM_OPENEYE_ISO_SMILES>
C1CCO[C@H]2[C@@H](CO[C@H]3[C@@H](COC[C@@H]4[C@@H]([C@H]([C@@H](O4)N5C=CC(=O)NC5=O)O)OC1)O[C@H]([C@@H]3O)N6C=CC(=O)NC6=O)O[C@H]([C@@H]2O)N7C=CC(=O)NC7=O

> <PUBCHEM_CACTVS_TPSA>
274

> <PUBCHEM_MONOISOTOPIC_WEIGHT>
750.23442915

> <PUBCHEM_TOTAL_CHARGE>
0

> <PUBCHEM_HEAVY_ATOM_COUNT>
53

> <PUBCHEM_ATOM_DEF_STEREO_COUNT>
12

> <PUBCHEM_ATOM_UDEF_STEREO_COUNT>
0

> <PUBCHEM_BOND_DEF_STEREO_COUNT>
0

> <PUBCHEM_BOND_UDEF_STEREO_COUNT>
0

> <PUBCHEM_ISOTOPIC_ATOM_COUNT>
0

> <PUBCHEM_COMPONENT_COUNT>
1

> <PUBCHEM_CACTVS_TAUTO_COUNT>
-1

> <PUBCHEM_COORDINATE_TYPE>
1
5
255

> <PUBCHEM_BONDANNOTATIONS>
34  10  5
28  17  5
17  42  8
17  43  8
30  18  5
18  44  8
18  45  8
36  19  6
19  46  8
19  47  8
20  42  8
20  50  8
21  44  8
21  52  8
22  46  8
22  53  8
23  54  6
24  55  6
25  56  6
27  58  6
31  62  5
32  63  5
43  48  8
45  49  8
47  51  8
48  50  8
49  52  8
51  53  8
26  8  6
29  9  6

$$$$
