 
  -OEChem-10192103352D

 33 32  0     1  0  0  0  0  0999 V2000
    5.4641    2.0670    0.0000 S   0  0  0  0  0  0  0  0  0  0  0  0
    2.8660    1.5670    0.0000 S   0  0  0  0  0  0  0  0  0  0  0  0
    3.7320   -0.9330    0.0000 P   0  3  0  0  0  0  0  0  0  0  0  0
    3.7320    2.0670    0.0000 O   0  0  0  0  0  0  0  0  0  0  0  0
    5.9641    1.2010    0.0000 O   0  0  0  0  0  0  0  0  0  0  0  0
    4.9641    2.9330    0.0000 O   0  0  0  0  0  0  0  0  0  0  0  0
    2.8660   -1.4330    0.0000 O   0  0  0  0  0  0  0  0  0  0  0  0
    2.3660    2.4330    0.0000 O   0  0  0  0  0  0  0  0  0  0  0  0
    3.3660    0.7010    0.0000 O   0  0  0  0  0  0  0  0  0  0  0  0
    4.5981   -1.4330    0.0000 O   0  0  0  0  0  0  0  0  0  0  0  0
    4.5981    1.5670    0.0000 C   0  0  3  0  0  0  0  0  0  0  0  0
    4.5981    0.5670    0.0000 C   0  0  0  0  0  0  0  0  0  0  0  0
    3.7320    0.0670    0.0000 C   0  0  0  0  0  0  0  0  0  0  0  0
    6.3301    2.5670    0.0000 C   0  0  0  0  0  0  0  0  0  0  0  0
    2.0000    1.0670    0.0000 C   0  0  0  0  0  0  0  0  0  0  0  0
    2.8660   -2.4330    0.0000 C   0  0  0  0  0  0  0  0  0  0  0  0
    2.0000   -2.9330    0.0000 C   0  0  0  0  0  0  0  0  0  0  0  0
    4.5981    2.1870    0.0000 H   0  0  0  0  0  0  0  0  0  0  0  0
    4.8101   -0.0156    0.0000 H   0  0  0  0  0  0  0  0  0  0  0  0
    5.2087    0.6746    0.0000 H   0  0  0  0  0  0  0  0  0  0  0  0
    3.5200    0.6496    0.0000 H   0  0  0  0  0  0  0  0  0  0  0  0
    3.1215   -0.0407    0.0000 H   0  0  0  0  0  0  0  0  0  0  0  0
    6.6401    2.0300    0.0000 H   0  0  0  0  0  0  0  0  0  0  0  0
    6.8671    2.8770    0.0000 H   0  0  0  0  0  0  0  0  0  0  0  0
    6.0201    3.1039    0.0000 H   0  0  0  0  0  0  0  0  0  0  0  0
    1.6900    1.6039    0.0000 H   0  0  0  0  0  0  0  0  0  0  0  0
    1.4631    0.7570    0.0000 H   0  0  0  0  0  0  0  0  0  0  0  0
    2.3100    0.5301    0.0000 H   0  0  0  0  0  0  0  0  0  0  0  0
    3.0781   -3.0156    0.0000 H   0  0  0  0  0  0  0  0  0  0  0  0
    3.4766   -2.3253    0.0000 H   0  0  0  0  0  0  0  0  0  0  0  0
    1.6900   -2.3961    0.0000 H   0  0  0  0  0  0  0  0  0  0  0  0
    1.4631   -3.2430    0.0000 H   0  0  0  0  0  0  0  0  0  0  0  0
    2.3100   -3.4700    0.0000 H   0  0  0  0  0  0  0  0  0  0  0  0
  1  5  2  0  0  0  0
  1  6  2  0  0  0  0
  1 11  1  0  0  0  0
  1 14  1  0  0  0  0
  2  4  1  0  0  0  0
  2  8  2  0  0  0  0
  2  9  2  0  0  0  0
  2 15  1  0  0  0  0
  3  7  1  0  0  0  0
  3 10  2  0  0  0  0
  3 13  1  0  0  0  0
  4 11  1  0  0  0  0
  7 16  1  0  0  0  0
 11 12  1  0  0  0  0
 11 18  1  0  0  0  0
 12 13  1  0  0  0  0
 12 19  1  0  0  0  0
 12 20  1  0  0  0  0
 13 21  1  0  0  0  0
 13 22  1  0  0  0  0
 14 23  1  0  0  0  0
 14 24  1  0  0  0  0
 14 25  1  0  0  0  0
 15 26  1  0  0  0  0
 15 27  1  0  0  0  0
 15 28  1  0  0  0  0
 16 17  1  0  0  0  0
 16 29  1  0  0  0  0
 16 30  1  0  0  0  0
 17 31  1  0  0  0  0
 17 32  1  0  0  0  0
 17 33  1  0  0  0  0
M  CHG  1   3   1
M  END
> <PUBCHEM_COMPOUND_CID>
130464246

> <PUBCHEM_COMPOUND_CANONICALIZED>
1

> <PUBCHEM_CACTVS_COMPLEXITY>
442

> <PUBCHEM_CACTVS_HBOND_ACCEPTOR>
7

> <PUBCHEM_CACTVS_HBOND_DONOR>
0

> <PUBCHEM_CACTVS_ROTATABLE_BOND>
8

> <PUBCHEM_CACTVS_SUBSKEYS>
AAADceBgOAJgAAAAAAAAAAAAAAAAAAAAAAAAAAAAAAAAAAAAAAAAGgwAACAACACswAKCAAAAARoAQAAAAPBAAAAAABAAAAAAAAAAAAAgAAAAAAAAAAAAAAAAAAAAAAAAAAAAAAAAAAAAAAAAAAAAAAAAAA==

> <PUBCHEM_IUPAC_OPENEYE_NAME>
ethoxy-(3-methylsulfonyl-3-methylsulfonyloxy-propyl)-oxo-phosphonium

> <PUBCHEM_IUPAC_CAS_NAME>
ethoxy-(3-methylsulfonyl-3-methylsulfonyloxypropyl)-oxophosphonium

> <PUBCHEM_IUPAC_NAME_MARKUP>
ethoxy-(3-methylsulfonyl-3-methylsulfonyloxypropyl)-oxophosphanium

> <PUBCHEM_IUPAC_NAME>
ethoxy-(3-methylsulfonyl-3-methylsulfonyloxypropyl)-oxophosphanium

> <PUBCHEM_IUPAC_SYSTEMATIC_NAME>
ethoxy-(3-methylsulfonyl-3-methylsulfonyloxy-propyl)-oxidanylidene-phosphanium

> <PUBCHEM_IUPAC_TRADITIONAL_NAME>
ethoxy-keto-(3-mesyl-3-methylsulfonyloxy-propyl)phosphonium

> <PUBCHEM_IUPAC_INCHI>
InChI=1S/C7H16O7PS2/c1-4-13-15(8)6-5-7(16(2,9)10)14-17(3,11)12/h7H,4-6H2,1-3H3/q+1

> <PUBCHEM_IUPAC_INCHIKEY>
SCCABYIHMVJKEJ-UHFFFAOYSA-N

> <PUBCHEM_XLOGP3_AA>
-0.8

> <PUBCHEM_EXACT_MASS>
307.00750719

> <PUBCHEM_MOLECULAR_FORMULA>
C7H16O7PS2+

> <PUBCHEM_MOLECULAR_WEIGHT>
307.3

> <PUBCHEM_OPENEYE_CAN_SMILES>
CCO[P+](=O)CCC(OS(=O)(=O)C)S(=O)(=O)C

> <PUBCHEM_OPENEYE_ISO_SMILES>
CCO[P+](=O)CCC(OS(=O)(=O)C)S(=O)(=O)C

> <PUBCHEM_CACTVS_TPSA>
121

> <PUBCHEM_MONOISOTOPIC_WEIGHT>
307.00750719

> <PUBCHEM_TOTAL_CHARGE>
1

> <PUBCHEM_HEAVY_ATOM_COUNT>
17

> <PUBCHEM_ATOM_DEF_STEREO_COUNT>
0

> <PUBCHEM_ATOM_UDEF_STEREO_COUNT>
1

> <PUBCHEM_BOND_DEF_STEREO_COUNT>
0

> <PUBCHEM_BOND_UDEF_STEREO_COUNT>
0

> <PUBCHEM_ISOTOPIC_ATOM_COUNT>
0

> <PUBCHEM_COMPONENT_COUNT>
1

> <PUBCHEM_CACTVS_TAUTO_COUNT>
-1

> <PUBCHEM_COORDINATE_TYPE>
1
5
255

> <PUBCHEM_BONDANNOTATIONS>
11  12  3

$$$$
