 
  -OEChem-10192104092D

 87 89  0     0  0  0  0  0  0999 V2000
   15.8564    3.5000    0.0000 O   0  0  0  0  0  0  0  0  0  0  0  0
    8.9282   -3.5000    0.0000 O   0  0  0  0  0  0  0  0  0  0  0  0
   20.1865    4.0000    0.0000 O   0  0  0  0  0  0  0  0  0  0  0  0
    4.5981   -4.0000    0.0000 O   0  0  0  0  0  0  0  0  0  0  0  0
   11.5263    2.0000    0.0000 O   0  0  0  0  0  0  0  0  0  0  0  0
   11.5263   -2.0000    0.0000 O   0  0  0  0  0  0  0  0  0  0  0  0
   14.1244    3.5000    0.0000 O   0  0  0  0  0  0  0  0  0  0  0  0
   10.6603   -3.5000    0.0000 O   0  0  0  0  0  0  0  0  0  0  0  0
   14.9904    5.0000    0.0000 O   0  0  0  0  0  0  0  0  0  0  0  0
    9.7942   -5.0000    0.0000 O   0  0  0  0  0  0  0  0  0  0  0  0
   13.2583    2.0000    0.0000 O   0  0  0  0  0  0  0  0  0  0  0  0
   13.2583   -2.0000    0.0000 O   0  0  0  0  0  0  0  0  0  0  0  0
   21.0526    2.5000    0.0000 O   0  0  0  0  0  0  0  0  0  0  0  0
    3.7320   -2.5000    0.0000 O   0  0  0  0  0  0  0  0  0  0  0  0
   17.5885    3.5000    0.0000 C   0  0  0  0  0  0  0  0  0  0  0  0
    7.1962   -3.5000    0.0000 C   0  0  0  0  0  0  0  0  0  0  0  0
   18.4545    4.0000    0.0000 C   0  0  0  0  0  0  0  0  0  0  0  0
    6.3301   -4.0000    0.0000 C   0  0  0  0  0  0  0  0  0  0  0  0
   16.7224    4.0000    0.0000 C   0  0  0  0  0  0  0  0  0  0  0  0
    8.0622   -4.0000    0.0000 C   0  0  0  0  0  0  0  0  0  0  0  0
   19.3205    3.5000    0.0000 C   0  0  0  0  0  0  0  0  0  0  0  0
    5.4641   -3.5000    0.0000 C   0  0  0  0  0  0  0  0  0  0  0  0
   10.6603    0.5000    0.0000 C   0  0  0  0  0  0  0  0  0  0  0  0
   11.5263    1.0000    0.0000 C   0  0  0  0  0  0  0  0  0  0  0  0
   11.5263   -1.0000    0.0000 C   0  0  0  0  0  0  0  0  0  0  0  0
   10.6603   -0.5000    0.0000 C   0  0  0  0  0  0  0  0  0  0  0  0
   12.3923    0.5000    0.0000 C   0  0  0  0  0  0  0  0  0  0  0  0
   12.3923    3.5000    0.0000 C   0  0  0  0  0  0  0  0  0  0  0  0
   12.3923   -0.5000    0.0000 C   0  0  0  0  0  0  0  0  0  0  0  0
   13.2583    4.0000    0.0000 C   0  0  0  0  0  0  0  0  0  0  0  0
   12.3923   -3.5000    0.0000 C   0  0  0  0  0  0  0  0  0  0  0  0
   11.5263   -4.0000    0.0000 C   0  0  0  0  0  0  0  0  0  0  0  0
    9.7942    1.0000    0.0000 C   0  0  0  0  0  0  0  0  0  0  0  0
   14.9904    4.0000    0.0000 C   0  0  0  0  0  0  0  0  0  0  0  0
    9.7942   -4.0000    0.0000 C   0  0  0  0  0  0  0  0  0  0  0  0
   12.3923    2.5000    0.0000 C   0  0  0  0  0  0  0  0  0  0  0  0
   12.3923   -2.5000    0.0000 C   0  0  0  0  0  0  0  0  0  0  0  0
   11.5263    4.0000    0.0000 C   0  0  0  0  0  0  0  0  0  0  0  0
   13.2583    5.0000    0.0000 C   0  0  0  0  0  0  0  0  0  0  0  0
   13.2583   -4.0000    0.0000 C   0  0  0  0  0  0  0  0  0  0  0  0
   11.5263   -5.0000    0.0000 C   0  0  0  0  0  0  0  0  0  0  0  0
   21.0526    3.5000    0.0000 C   0  0  0  0  0  0  0  0  0  0  0  0
    3.7320   -3.5000    0.0000 C   0  0  0  0  0  0  0  0  0  0  0  0
   11.5263    5.0000    0.0000 C   0  0  0  0  0  0  0  0  0  0  0  0
   12.3923    5.5000    0.0000 C   0  0  0  0  0  0  0  0  0  0  0  0
   13.2583   -5.0000    0.0000 C   0  0  0  0  0  0  0  0  0  0  0  0
   12.3923   -5.5000    0.0000 C   0  0  0  0  0  0  0  0  0  0  0  0
   21.9186    4.0000    0.0000 C   0  0  0  0  0  0  0  0  0  0  0  0
    2.8660   -4.0000    0.0000 C   0  0  0  0  0  0  0  0  0  0  0  0
   22.7846    3.5000    0.0000 C   0  0  0  0  0  0  0  0  0  0  0  0
    2.0000   -3.5000    0.0000 C   0  0  0  0  0  0  0  0  0  0  0  0
   17.1899    3.0250    0.0000 H   0  0  0  0  0  0  0  0  0  0  0  0
   17.9870    3.0250    0.0000 H   0  0  0  0  0  0  0  0  0  0  0  0
    7.5947   -3.0250    0.0000 H   0  0  0  0  0  0  0  0  0  0  0  0
    6.7976   -3.0250    0.0000 H   0  0  0  0  0  0  0  0  0  0  0  0
   18.8530    4.4750    0.0000 H   0  0  0  0  0  0  0  0  0  0  0  0
   18.0560    4.4750    0.0000 H   0  0  0  0  0  0  0  0  0  0  0  0
    5.9316   -4.4750    0.0000 H   0  0  0  0  0  0  0  0  0  0  0  0
    6.7287   -4.4750    0.0000 H   0  0  0  0  0  0  0  0  0  0  0  0
   17.1210    4.4750    0.0000 H   0  0  0  0  0  0  0  0  0  0  0  0
   16.3239    4.4750    0.0000 H   0  0  0  0  0  0  0  0  0  0  0  0
    7.6636   -4.4750    0.0000 H   0  0  0  0  0  0  0  0  0  0  0  0
    8.4607   -4.4750    0.0000 H   0  0  0  0  0  0  0  0  0  0  0  0
   18.9220    3.0250    0.0000 H   0  0  0  0  0  0  0  0  0  0  0  0
   19.7190    3.0250    0.0000 H   0  0  0  0  0  0  0  0  0  0  0  0
    5.8626   -3.0250    0.0000 H   0  0  0  0  0  0  0  0  0  0  0  0
    5.0656   -3.0250    0.0000 H   0  0  0  0  0  0  0  0  0  0  0  0
   10.1233   -0.8100    0.0000 H   0  0  0  0  0  0  0  0  0  0  0  0
   12.9292    0.8100    0.0000 H   0  0  0  0  0  0  0  0  0  0  0  0
   12.9292   -0.8100    0.0000 H   0  0  0  0  0  0  0  0  0  0  0  0
   10.1042    1.5369    0.0000 H   0  0  0  0  0  0  0  0  0  0  0  0
    9.2573    1.3100    0.0000 H   0  0  0  0  0  0  0  0  0  0  0  0
    9.4842    0.4631    0.0000 H   0  0  0  0  0  0  0  0  0  0  0  0
   10.9893    3.6900    0.0000 H   0  0  0  0  0  0  0  0  0  0  0  0
   13.7953    5.3100    0.0000 H   0  0  0  0  0  0  0  0  0  0  0  0
   13.7953   -3.6900    0.0000 H   0  0  0  0  0  0  0  0  0  0  0  0
   10.9893   -5.3100    0.0000 H   0  0  0  0  0  0  0  0  0  0  0  0
   10.9893    5.3100    0.0000 H   0  0  0  0  0  0  0  0  0  0  0  0
   12.3923    6.1200    0.0000 H   0  0  0  0  0  0  0  0  0  0  0  0
   13.7953   -5.3100    0.0000 H   0  0  0  0  0  0  0  0  0  0  0  0
   12.3923   -6.1200    0.0000 H   0  0  0  0  0  0  0  0  0  0  0  0
   21.9186    4.6200    0.0000 H   0  0  0  0  0  0  0  0  0  0  0  0
    2.8660   -4.6200    0.0000 H   0  0  0  0  0  0  0  0  0  0  0  0
   22.7846    2.8800    0.0000 H   0  0  0  0  0  0  0  0  0  0  0  0
   23.3215    3.8100    0.0000 H   0  0  0  0  0  0  0  0  0  0  0  0
    2.0000   -2.8800    0.0000 H   0  0  0  0  0  0  0  0  0  0  0  0
    1.4631   -3.8100    0.0000 H   0  0  0  0  0  0  0  0  0  0  0  0
  1 19  1  0  0  0  0
  1 34  1  0  0  0  0
  2 20  1  0  0  0  0
  2 35  1  0  0  0  0
  3 21  1  0  0  0  0
  3 42  1  0  0  0  0
  4 22  1  0  0  0  0
  4 43  1  0  0  0  0
  5 24  1  0  0  0  0
  5 36  1  0  0  0  0
  6 25  1  0  0  0  0
  6 37  1  0  0  0  0
  7 30  1  0  0  0  0
  7 34  1  0  0  0  0
  8 32  1  0  0  0  0
  8 35  1  0  0  0  0
  9 34  2  0  0  0  0
 10 35  2  0  0  0  0
 11 36  2  0  0  0  0
 12 37  2  0  0  0  0
 13 42  2  0  0  0  0
 14 43  2  0  0  0  0
 15 17  1  0  0  0  0
 15 19  1  0  0  0  0
 15 52  1  0  0  0  0
 15 53  1  0  0  0  0
 16 18  1  0  0  0  0
 16 20  1  0  0  0  0
 16 54  1  0  0  0  0
 16 55  1  0  0  0  0
 17 21  1  0  0  0  0
 17 56  1  0  0  0  0
 17 57  1  0  0  0  0
 18 22  1  0  0  0  0
 18 58  1  0  0  0  0
 18 59  1  0  0  0  0
 19 60  1  0  0  0  0
 19 61  1  0  0  0  0
 20 62  1  0  0  0  0
 20 63  1  0  0  0  0
 21 64  1  0  0  0  0
 21 65  1  0  0  0  0
 22 66  1  0  0  0  0
 22 67  1  0  0  0  0
 23 24  2  0  0  0  0
 23 26  1  0  0  0  0
 23 33  1  0  0  0  0
 24 27  1  0  0  0  0
 25 26  2  0  0  0  0
 25 29  1  0  0  0  0
 26 68  1  0  0  0  0
 27 29  2  0  0  0  0
 27 69  1  0  0  0  0
 28 30  1  0  0  0  0
 28 36  1  0  0  0  0
 28 38  2  0  0  0  0
 29 70  1  0  0  0  0
 30 39  2  0  0  0  0
 31 32  1  0  0  0  0
 31 37  1  0  0  0  0
 31 40  2  0  0  0  0
 32 41  2  0  0  0  0
 33 71  1  0  0  0  0
 33 72  1  0  0  0  0
 33 73  1  0  0  0  0
 38 44  1  0  0  0  0
 38 74  1  0  0  0  0
 39 45  1  0  0  0  0
 39 75  1  0  0  0  0
 40 46  1  0  0  0  0
 40 76  1  0  0  0  0
 41 47  1  0  0  0  0
 41 77  1  0  0  0  0
 42 48  1  0  0  0  0
 43 49  1  0  0  0  0
 44 45  2  0  0  0  0
 44 78  1  0  0  0  0
 45 79  1  0  0  0  0
 46 47  2  0  0  0  0
 46 80  1  0  0  0  0
 47 81  1  0  0  0  0
 48 50  2  0  0  0  0
 48 82  1  0  0  0  0
 49 51  2  0  0  0  0
 49 83  1  0  0  0  0
 50 84  1  0  0  0  0
 50 85  1  0  0  0  0
 51 86  1  0  0  0  0
 51 87  1  0  0  0  0
M  END
> <PUBCHEM_COMPOUND_CID>
23284104

> <PUBCHEM_COMPOUND_CANONICALIZED>
1

> <PUBCHEM_CACTVS_COMPLEXITY>
1180

> <PUBCHEM_CACTVS_HBOND_ACCEPTOR>
14

> <PUBCHEM_CACTVS_HBOND_DONOR>
0

> <PUBCHEM_CACTVS_ROTATABLE_BOND>
26

> <PUBCHEM_CACTVS_SUBSKEYS>
AAADcfB8PAAAAAAAAAAAAAAAAAAAAAAAAAAwYMAAAAAAAAABUAAAGgAAAAAADASgmAIyDoAABACIAiDSCAACCAAkIAAIiAEGCMgcJzaENRqiO2Cl4BEMqYfIyDCOAQABAAAIAAACAAIAABAAAAAAAAAAAA==

> <PUBCHEM_IUPAC_OPENEYE_NAME>
[3-methyl-4-[2-(4-prop-2-enoyloxybutoxycarbonyloxy)benzoyl]oxy-phenyl] 2-(4-prop-2-enoyloxybutoxycarbonyloxy)benzoate

> <PUBCHEM_IUPAC_CAS_NAME>
2-[oxo-[4-(1-oxoprop-2-enoxy)butoxy]methoxy]benzoic acid [3-methyl-4-[oxo-[2-[oxo-[4-(1-oxoprop-2-enoxy)butoxy]methoxy]phenyl]methoxy]phenyl] ester

> <PUBCHEM_IUPAC_NAME_MARKUP>
[3-methyl-4-[2-(4-prop-2-enoyloxybutoxycarbonyloxy)benzoyl]oxyphenyl] 2-(4-prop-2-enoyloxybutoxycarbonyloxy)benzoate

> <PUBCHEM_IUPAC_NAME>
[3-methyl-4-[2-(4-prop-2-enoyloxybutoxycarbonyloxy)benzoyl]oxyphenyl] 2-(4-prop-2-enoyloxybutoxycarbonyloxy)benzoate

> <PUBCHEM_IUPAC_SYSTEMATIC_NAME>
[3-methyl-4-[2-(4-prop-2-enoyloxybutoxycarbonyloxy)phenyl]carbonyloxy-phenyl] 2-(4-prop-2-enoyloxybutoxycarbonyloxy)benzoate

> <PUBCHEM_IUPAC_TRADITIONAL_NAME>
2-(4-acryloyloxybutoxycarbonyloxy)benzoic acid [4-[2-(4-acryloyloxybutoxycarbonyloxy)benzoyl]oxy-3-methyl-phenyl] ester

> <PUBCHEM_IUPAC_INCHI>
InChI=1S/C37H36O14/c1-4-32(38)44-20-10-12-22-46-36(42)50-30-16-8-6-14-27(30)34(40)48-26-18-19-29(25(3)24-26)49-35(41)28-15-7-9-17-31(28)51-37(43)47-23-13-11-21-45-33(39)5-2/h4-9,14-19,24H,1-2,10-13,20-23H2,3H3

> <PUBCHEM_IUPAC_INCHIKEY>
FYJCHEWSZCIZAS-UHFFFAOYSA-N

> <PUBCHEM_XLOGP3_AA>
7.8

> <PUBCHEM_EXACT_MASS>
704.21050582

> <PUBCHEM_MOLECULAR_FORMULA>
C37H36O14

> <PUBCHEM_MOLECULAR_WEIGHT>
704.7

> <PUBCHEM_OPENEYE_CAN_SMILES>
CC1=C(C=CC(=C1)OC(=O)C2=CC=CC=C2OC(=O)OCCCCOC(=O)C=C)OC(=O)C3=CC=CC=C3OC(=O)OCCCCOC(=O)C=C

> <PUBCHEM_OPENEYE_ISO_SMILES>
CC1=C(C=CC(=C1)OC(=O)C2=CC=CC=C2OC(=O)OCCCCOC(=O)C=C)OC(=O)C3=CC=CC=C3OC(=O)OCCCCOC(=O)C=C

> <PUBCHEM_CACTVS_TPSA>
176

> <PUBCHEM_MONOISOTOPIC_WEIGHT>
704.21050582

> <PUBCHEM_TOTAL_CHARGE>
0

> <PUBCHEM_HEAVY_ATOM_COUNT>
51

> <PUBCHEM_ATOM_DEF_STEREO_COUNT>
0

> <PUBCHEM_ATOM_UDEF_STEREO_COUNT>
0

> <PUBCHEM_BOND_DEF_STEREO_COUNT>
0

> <PUBCHEM_BOND_UDEF_STEREO_COUNT>
0

> <PUBCHEM_ISOTOPIC_ATOM_COUNT>
0

> <PUBCHEM_COMPONENT_COUNT>
1

> <PUBCHEM_CACTVS_TAUTO_COUNT>
-1

> <PUBCHEM_COORDINATE_TYPE>
1
5
255

> <PUBCHEM_BONDANNOTATIONS>
23  24  8
23  26  8
24  27  8
25  26  8
25  29  8
27  29  8
28  30  8
28  38  8
30  39  8
31  32  8
31  40  8
32  41  8
38  44  8
39  45  8
40  46  8
41  47  8
44  45  8
46  47  8

$$$$
