 
  -OEChem-10192103552D

 27 27  0     0  0  0  0  0  0999 V2000
    5.8424    0.5064    0.0000 O   0  0  0  0  0  0  0  0  0  0  0  0
    3.4013   -2.4762    0.0000 O   0  0  0  0  0  0  0  0  0  0  0  0
    4.9483    2.2852    0.0000 O   0  0  0  0  0  0  0  0  0  0  0  0
    2.0000   -1.4581    0.0000 O   0  0  0  0  0  0  0  0  0  0  0  0
    3.2163    2.2852    0.0000 O   0  0  0  0  0  0  0  0  0  0  0  0
    4.5823   -0.7536    0.0000 C   0  0  0  0  0  0  0  0  0  0  0  0
    3.2733    0.1974    0.0000 C   0  0  0  0  0  0  0  0  0  0  0  0
    3.5823   -0.7536    0.0000 C   0  0  0  0  0  0  0  0  0  0  0  0
    4.0823    0.7852    0.0000 C   0  0  0  0  0  0  0  0  0  0  0  0
    4.8913    0.1974    0.0000 C   0  0  0  0  0  0  0  0  0  0  0  0
    2.3222    0.5064    0.0000 C   0  0  0  0  0  0  0  0  0  0  0  0
    2.9945   -1.5627    0.0000 C   0  0  0  0  0  0  0  0  0  0  0  0
    4.0823    1.7852    0.0000 C   0  0  0  0  0  0  0  0  0  0  0  0
    2.8135   -3.2852    0.0000 C   0  0  0  0  0  0  0  0  0  0  0  0
    4.9483    3.2852    0.0000 C   0  0  0  0  0  0  0  0  0  0  0  0
    4.5175   -1.3702    0.0000 H   0  0  0  0  0  0  0  0  0  0  0  0
    5.1888   -0.8825    0.0000 H   0  0  0  0  0  0  0  0  0  0  0  0
    2.5138    1.0961    0.0000 H   0  0  0  0  0  0  0  0  0  0  0  0
    1.7326    0.6980    0.0000 H   0  0  0  0  0  0  0  0  0  0  0  0
    2.1306   -0.0832    0.0000 H   0  0  0  0  0  0  0  0  0  0  0  0
    6.3031    0.0916    0.0000 H   0  0  0  0  0  0  0  0  0  0  0  0
    2.3119   -2.9208    0.0000 H   0  0  0  0  0  0  0  0  0  0  0  0
    2.4490   -3.7868    0.0000 H   0  0  0  0  0  0  0  0  0  0  0  0
    3.3151   -3.6496    0.0000 H   0  0  0  0  0  0  0  0  0  0  0  0
    5.5683    3.2852    0.0000 H   0  0  0  0  0  0  0  0  0  0  0  0
    4.9483    3.9052    0.0000 H   0  0  0  0  0  0  0  0  0  0  0  0
    4.3283    3.2852    0.0000 H   0  0  0  0  0  0  0  0  0  0  0  0
  1 10  1  0  0  0  0
  1 21  1  0  0  0  0
  2 12  1  0  0  0  0
  2 14  1  0  0  0  0
  3 13  1  0  0  0  0
  3 15  1  0  0  0  0
  4 12  2  0  0  0  0
  5 13  2  0  0  0  0
  6  8  1  0  0  0  0
  6 10  1  0  0  0  0
  6 16  1  0  0  0  0
  6 17  1  0  0  0  0
  7  8  2  0  0  0  0
  7  9  1  0  0  0  0
  7 11  1  0  0  0  0
  8 12  1  0  0  0  0
  9 10  2  0  0  0  0
  9 13  1  0  0  0  0
 11 18  1  0  0  0  0
 11 19  1  0  0  0  0
 11 20  1  0  0  0  0
 14 22  1  0  0  0  0
 14 23  1  0  0  0  0
 14 24  1  0  0  0  0
 15 25  1  0  0  0  0
 15 26  1  0  0  0  0
 15 27  1  0  0  0  0
M  END
> <PUBCHEM_COMPOUND_CID>
54707939

> <PUBCHEM_COMPOUND_CANONICALIZED>
1

> <PUBCHEM_CACTVS_COMPLEXITY>
375

> <PUBCHEM_CACTVS_HBOND_ACCEPTOR>
5

> <PUBCHEM_CACTVS_HBOND_DONOR>
1

> <PUBCHEM_CACTVS_ROTATABLE_BOND>
4

> <PUBCHEM_CACTVS_SUBSKEYS>
AAADccBwOAAAAAAAAAAAAAAAAAAAAQAAAAAAAAAAAAAAAAAAAAAAGgAACAAADASAgAICCAAABgCIAgDQCAAAAAAgIAAACAEAAEgIBBAAIAAAUAAEwAAIoQJCAAAAAAAAAAAAAAAAAAAAAAAAAAAAAAAAAA==

> <PUBCHEM_IUPAC_OPENEYE_NAME>
dimethyl 4-hydroxy-2-methyl-cyclopenta-1,3-diene-1,3-dicarboxylate

> <PUBCHEM_IUPAC_CAS_NAME>
4-hydroxy-2-methylcyclopenta-1,3-diene-1,3-dicarboxylic acid dimethyl ester

> <PUBCHEM_IUPAC_NAME_MARKUP>
dimethyl 4-hydroxy-2-methylcyclopenta-1,3-diene-1,3-dicarboxylate

> <PUBCHEM_IUPAC_NAME>
dimethyl 4-hydroxy-2-methylcyclopenta-1,3-diene-1,3-dicarboxylate

> <PUBCHEM_IUPAC_SYSTEMATIC_NAME>
dimethyl 2-methyl-4-oxidanyl-cyclopenta-1,3-diene-1,3-dicarboxylate

> <PUBCHEM_IUPAC_TRADITIONAL_NAME>
4-hydroxy-2-methyl-cyclopenta-1,3-diene-1,3-dicarboxylic acid dimethyl ester

> <PUBCHEM_IUPAC_INCHI>
InChI=1S/C10H12O5/c1-5-6(9(12)14-2)4-7(11)8(5)10(13)15-3/h11H,4H2,1-3H3

> <PUBCHEM_IUPAC_INCHIKEY>
OFYOVWMXZYGWIE-UHFFFAOYSA-N

> <PUBCHEM_XLOGP3_AA>
0.8

> <PUBCHEM_EXACT_MASS>
212.06847348

> <PUBCHEM_MOLECULAR_FORMULA>
C10H12O5

> <PUBCHEM_MOLECULAR_WEIGHT>
212.20

> <PUBCHEM_OPENEYE_CAN_SMILES>
CC1=C(CC(=C1C(=O)OC)O)C(=O)OC

> <PUBCHEM_OPENEYE_ISO_SMILES>
CC1=C(CC(=C1C(=O)OC)O)C(=O)OC

> <PUBCHEM_CACTVS_TPSA>
72.8

> <PUBCHEM_MONOISOTOPIC_WEIGHT>
212.06847348

> <PUBCHEM_TOTAL_CHARGE>
0

> <PUBCHEM_HEAVY_ATOM_COUNT>
15

> <PUBCHEM_ATOM_DEF_STEREO_COUNT>
0

> <PUBCHEM_ATOM_UDEF_STEREO_COUNT>
0

> <PUBCHEM_BOND_DEF_STEREO_COUNT>
0

> <PUBCHEM_BOND_UDEF_STEREO_COUNT>
0

> <PUBCHEM_ISOTOPIC_ATOM_COUNT>
0

> <PUBCHEM_COMPONENT_COUNT>
1

> <PUBCHEM_CACTVS_TAUTO_COUNT>
-1

> <PUBCHEM_COORDINATE_TYPE>
1
5
255

$$$$
