 
  -OEChem-10192104292D

 93 96  0     0  0  0  0  0  0999 V2000
    6.3301    2.8100    0.0000 O   0  0  0  0  0  0  0  0  0  0  0  0
    5.4641    1.3100    0.0000 O   0  0  0  0  0  0  0  0  0  0  0  0
   14.1244   -1.6900    0.0000 O   0  0  0  0  0  0  0  0  0  0  0  0
   13.2583    2.8100    0.0000 O   0  0  0  0  0  0  0  0  0  0  0  0
    2.0000   -4.6900    0.0000 O   0  0  0  0  0  0  0  0  0  0  0  0
    6.3301   -6.1900    0.0000 O   0  0  0  0  0  0  0  0  0  0  0  0
   12.3923   -1.6900    0.0000 O   0  0  0  0  0  0  0  0  0  0  0  0
   14.1244    1.3100    0.0000 O   0  0  0  0  0  0  0  0  0  0  0  0
    2.8660   -3.1900    0.0000 O   0  0  0  0  0  0  0  0  0  0  0  0
    4.5981   -6.1900    0.0000 O   0  0  0  0  0  0  0  0  0  0  0  0
    9.7942   -0.1900    0.0000 N   0  0  0  0  0  0  0  0  0  0  0  0
    5.4641   -1.6900    0.0000 N   0  0  0  0  0  0  0  0  0  0  0  0
   12.3923    0.3100    0.0000 N   0  0  0  0  0  0  0  0  0  0  0  0
    4.5981   -4.1900    0.0000 N   0  0  0  0  0  0  0  0  0  0  0  0
    7.1962    0.3100    0.0000 C   0  0  0  0  0  0  0  0  0  0  0  0
    8.0622   -0.1900    0.0000 C   0  0  0  0  0  0  0  0  0  0  0  0
    6.3301   -0.1900    0.0000 C   0  0  0  0  0  0  0  0  0  0  0  0
    7.1962    1.3100    0.0000 C   0  0  0  0  0  0  0  0  0  0  0  0
    8.9282    0.3100    0.0000 C   0  0  0  0  0  0  0  0  0  0  0  0
    6.3301   -1.1900    0.0000 C   0  0  0  0  0  0  0  0  0  0  0  0
    6.3301    1.8100    0.0000 C   0  0  0  0  0  0  0  0  0  0  0  0
    8.9282    1.3100    0.0000 C   0  0  0  0  0  0  0  0  0  0  0  0
    7.1962   -1.6900    0.0000 C   0  0  0  0  0  0  0  0  0  0  0  0
   10.6603    0.3100    0.0000 C   0  0  0  0  0  0  0  0  0  0  0  0
    5.4641   -2.6900    0.0000 C   0  0  0  0  0  0  0  0  0  0  0  0
   11.5263   -0.1900    0.0000 C   0  0  0  0  0  0  0  0  0  0  0  0
    4.5981   -3.1900    0.0000 C   0  0  0  0  0  0  0  0  0  0  0  0
    9.7942    1.8100    0.0000 C   0  0  0  0  0  0  0  0  0  0  0  0
    7.1962   -2.6900    0.0000 C   0  0  0  0  0  0  0  0  0  0  0  0
   10.6603    1.3100    0.0000 C   0  0  0  0  0  0  0  0  0  0  0  0
    6.3301   -3.1900    0.0000 C   0  0  0  0  0  0  0  0  0  0  0  0
   13.2583   -0.1900    0.0000 C   0  0  0  0  0  0  0  0  0  0  0  0
   12.3923    1.3100    0.0000 C   0  0  0  0  0  0  0  0  0  0  0  0
    3.7320   -4.6900    0.0000 C   0  0  0  0  0  0  0  0  0  0  0  0
    5.4641   -4.6900    0.0000 C   0  0  0  0  0  0  0  0  0  0  0  0
    9.7942    2.8100    0.0000 C   0  0  0  0  0  0  0  0  0  0  0  0
    8.0622   -3.1900    0.0000 C   0  0  0  0  0  0  0  0  0  0  0  0
   13.2583   -1.1900    0.0000 C   0  0  0  0  0  0  0  0  0  0  0  0
   13.2583    1.8100    0.0000 C   0  0  0  0  0  0  0  0  0  0  0  0
    2.8660   -4.1900    0.0000 C   0  0  0  0  0  0  0  0  0  0  0  0
    5.4641   -5.6900    0.0000 C   0  0  0  0  0  0  0  0  0  0  0  0
    9.7942    3.8100    0.0000 C   0  0  0  0  0  0  0  0  0  0  0  0
    8.9282   -3.6900    0.0000 C   0  0  0  0  0  0  0  0  0  0  0  0
    9.7942    4.8100    0.0000 C   0  0  0  0  0  0  0  0  0  0  0  0
    9.7942   -4.1900    0.0000 C   0  0  0  0  0  0  0  0  0  0  0  0
    8.9282    5.3100    0.0000 C   0  0  0  0  0  0  0  0  0  0  0  0
    9.7942   -5.1900    0.0000 C   0  0  0  0  0  0  0  0  0  0  0  0
   10.6603    5.3100    0.0000 C   0  0  0  0  0  0  0  0  0  0  0  0
   10.6603   -3.6900    0.0000 C   0  0  0  0  0  0  0  0  0  0  0  0
    8.9282    6.3100    0.0000 C   0  0  0  0  0  0  0  0  0  0  0  0
   10.6603   -5.6900    0.0000 C   0  0  0  0  0  0  0  0  0  0  0  0
   10.6603    6.3100    0.0000 C   0  0  0  0  0  0  0  0  0  0  0  0
   11.5263   -4.1900    0.0000 C   0  0  0  0  0  0  0  0  0  0  0  0
    9.7942    6.8100    0.0000 C   0  0  0  0  0  0  0  0  0  0  0  0
   11.5263   -5.1900    0.0000 C   0  0  0  0  0  0  0  0  0  0  0  0
    6.6592    0.6200    0.0000 H   0  0  0  0  0  0  0  0  0  0  0  0
    7.6636   -0.6649    0.0000 H   0  0  0  0  0  0  0  0  0  0  0  0
    8.4607   -0.6649    0.0000 H   0  0  0  0  0  0  0  0  0  0  0  0
    6.1181    0.3926    0.0000 H   0  0  0  0  0  0  0  0  0  0  0  0
    5.7196   -0.2977    0.0000 H   0  0  0  0  0  0  0  0  0  0  0  0
    7.8067    1.2023    0.0000 H   0  0  0  0  0  0  0  0  0  0  0  0
    7.4082    1.8926    0.0000 H   0  0  0  0  0  0  0  0  0  0  0  0
    8.3913    1.6200    0.0000 H   0  0  0  0  0  0  0  0  0  0  0  0
    7.7331   -1.3800    0.0000 H   0  0  0  0  0  0  0  0  0  0  0  0
   11.1278   -0.6649    0.0000 H   0  0  0  0  0  0  0  0  0  0  0  0
   11.9248   -0.6649    0.0000 H   0  0  0  0  0  0  0  0  0  0  0  0
    4.3860   -2.6074    0.0000 H   0  0  0  0  0  0  0  0  0  0  0  0
    3.9875   -3.2977    0.0000 H   0  0  0  0  0  0  0  0  0  0  0  0
   11.1972    1.6200    0.0000 H   0  0  0  0  0  0  0  0  0  0  0  0
    6.3301   -3.8100    0.0000 H   0  0  0  0  0  0  0  0  0  0  0  0
   13.8689   -0.2977    0.0000 H   0  0  0  0  0  0  0  0  0  0  0  0
   13.4704    0.3926    0.0000 H   0  0  0  0  0  0  0  0  0  0  0  0
   12.1803    1.8926    0.0000 H   0  0  0  0  0  0  0  0  0  0  0  0
   11.7817    1.2023    0.0000 H   0  0  0  0  0  0  0  0  0  0  0  0
    3.3335   -5.1650    0.0000 H   0  0  0  0  0  0  0  0  0  0  0  0
    4.1306   -5.1650    0.0000 H   0  0  0  0  0  0  0  0  0  0  0  0
    6.0747   -4.7977    0.0000 H   0  0  0  0  0  0  0  0  0  0  0  0
    5.6762   -4.1074    0.0000 H   0  0  0  0  0  0  0  0  0  0  0  0
    6.8671    3.1200    0.0000 H   0  0  0  0  0  0  0  0  0  0  0  0
   14.6613   -1.3800    0.0000 H   0  0  0  0  0  0  0  0  0  0  0  0
   13.7953    3.1200    0.0000 H   0  0  0  0  0  0  0  0  0  0  0  0
    2.0000   -5.3100    0.0000 H   0  0  0  0  0  0  0  0  0  0  0  0
    6.3301   -6.8100    0.0000 H   0  0  0  0  0  0  0  0  0  0  0  0
    8.3913    5.0000    0.0000 H   0  0  0  0  0  0  0  0  0  0  0  0
    9.2573   -5.5000    0.0000 H   0  0  0  0  0  0  0  0  0  0  0  0
   11.1972    5.0000    0.0000 H   0  0  0  0  0  0  0  0  0  0  0  0
   10.6603   -3.0700    0.0000 H   0  0  0  0  0  0  0  0  0  0  0  0
    8.3913    6.6200    0.0000 H   0  0  0  0  0  0  0  0  0  0  0  0
   10.6603   -6.3100    0.0000 H   0  0  0  0  0  0  0  0  0  0  0  0
   11.1972    6.6200    0.0000 H   0  0  0  0  0  0  0  0  0  0  0  0
   12.0632   -3.8800    0.0000 H   0  0  0  0  0  0  0  0  0  0  0  0
    9.7942    7.4300    0.0000 H   0  0  0  0  0  0  0  0  0  0  0  0
   12.0632   -5.5000    0.0000 H   0  0  0  0  0  0  0  0  0  0  0  0
  1 21  1  0  0  0  0
  1 79  1  0  0  0  0
  2 21  2  0  0  0  0
  3 38  1  0  0  0  0
  3 80  1  0  0  0  0
  4 39  1  0  0  0  0
  4 81  1  0  0  0  0
  5 40  1  0  0  0  0
  5 82  1  0  0  0  0
  6 41  1  0  0  0  0
  6 83  1  0  0  0  0
  7 38  2  0  0  0  0
  8 39  2  0  0  0  0
  9 40  2  0  0  0  0
 10 41  2  0  0  0  0
 11 19  2  0  0  0  0
 11 24  1  0  0  0  0
 12 20  2  0  0  0  0
 12 25  1  0  0  0  0
 13 26  1  0  0  0  0
 13 32  1  0  0  0  0
 13 33  1  0  0  0  0
 14 27  1  0  0  0  0
 14 34  1  0  0  0  0
 14 35  1  0  0  0  0
 15 16  1  0  0  0  0
 15 17  1  0  0  0  0
 15 18  1  0  0  0  0
 15 56  1  0  0  0  0
 16 19  1  0  0  0  0
 16 57  1  0  0  0  0
 16 58  1  0  0  0  0
 17 20  1  0  0  0  0
 17 59  1  0  0  0  0
 17 60  1  0  0  0  0
 18 21  1  0  0  0  0
 18 61  1  0  0  0  0
 18 62  1  0  0  0  0
 19 22  1  0  0  0  0
 20 23  1  0  0  0  0
 22 28  2  0  0  0  0
 22 63  1  0  0  0  0
 23 29  2  0  0  0  0
 23 64  1  0  0  0  0
 24 26  1  0  0  0  0
 24 30  2  0  0  0  0
 25 27  1  0  0  0  0
 25 31  2  0  0  0  0
 26 65  1  0  0  0  0
 26 66  1  0  0  0  0
 27 67  1  0  0  0  0
 27 68  1  0  0  0  0
 28 30  1  0  0  0  0
 28 36  1  0  0  0  0
 29 31  1  0  0  0  0
 29 37  1  0  0  0  0
 30 69  1  0  0  0  0
 31 70  1  0  0  0  0
 32 38  1  0  0  0  0
 32 71  1  0  0  0  0
 32 72  1  0  0  0  0
 33 39  1  0  0  0  0
 33 73  1  0  0  0  0
 33 74  1  0  0  0  0
 34 40  1  0  0  0  0
 34 75  1  0  0  0  0
 34 76  1  0  0  0  0
 35 41  1  0  0  0  0
 35 77  1  0  0  0  0
 35 78  1  0  0  0  0
 36 42  3  0  0  0  0
 37 43  3  0  0  0  0
 42 44  1  0  0  0  0
 43 45  1  0  0  0  0
 44 46  2  0  0  0  0
 44 48  1  0  0  0  0
 45 47  2  0  0  0  0
 45 49  1  0  0  0  0
 46 50  1  0  0  0  0
 46 84  1  0  0  0  0
 47 51  1  0  0  0  0
 47 85  1  0  0  0  0
 48 52  2  0  0  0  0
 48 86  1  0  0  0  0
 49 53  2  0  0  0  0
 49 87  1  0  0  0  0
 50 54  2  0  0  0  0
 50 88  1  0  0  0  0
 51 55  2  0  0  0  0
 51 89  1  0  0  0  0
 52 54  1  0  0  0  0
 52 90  1  0  0  0  0
 53 55  1  0  0  0  0
 53 91  1  0  0  0  0
 54 92  1  0  0  0  0
 55 93  1  0  0  0  0
M  END
> <PUBCHEM_COMPOUND_CID>
71209841

> <PUBCHEM_COMPOUND_CANONICALIZED>
1

> <PUBCHEM_CACTVS_COMPLEXITY>
1320

> <PUBCHEM_CACTVS_HBOND_ACCEPTOR>
14

> <PUBCHEM_CACTVS_HBOND_DONOR>
5

> <PUBCHEM_CACTVS_ROTATABLE_BOND>
22

> <PUBCHEM_CACTVS_SUBSKEYS>
AAADcfB/vAAAAAAAAAAAAAAAAAAAAAAAAAA8eIEAAAAAAAAB9AAAHgAACAAADQjBngQwiJMIEgDoEyTyTAiCgCAhAiAImCG4ZJgKYHLAkbGUYAhkgADYyAeY2eOeAAAAAAAAAAAAAAAAAAAAAAAAAAAAAA==

> <PUBCHEM_IUPAC_OPENEYE_NAME>
4-[6-[[bis(carboxymethyl)amino]methyl]-4-(2-phenylethynyl)-2-pyridyl]-3-[[6-[[bis(carboxymethyl)amino]methyl]-4-(2-phenylethynyl)-2-pyridyl]methyl]butanoic acid

> <PUBCHEM_IUPAC_CAS_NAME>
4-[6-[[bis(carboxymethyl)amino]methyl]-4-(2-phenylethynyl)-2-pyridinyl]-3-[[6-[[bis(carboxymethyl)amino]methyl]-4-(2-phenylethynyl)-2-pyridinyl]methyl]butanoic acid

> <PUBCHEM_IUPAC_NAME_MARKUP>
4-[6-[[bis(carboxymethyl)amino]methyl]-4-(2-phenylethynyl)pyridin-2-yl]-3-[[6-[[bis(carboxymethyl)amino]methyl]-4-(2-phenylethynyl)pyridin-2-yl]methyl]butanoic acid

> <PUBCHEM_IUPAC_NAME>
4-[6-[[bis(carboxymethyl)amino]methyl]-4-(2-phenylethynyl)pyridin-2-yl]-3-[[6-[[bis(carboxymethyl)amino]methyl]-4-(2-phenylethynyl)pyridin-2-yl]methyl]butanoic acid

> <PUBCHEM_IUPAC_SYSTEMATIC_NAME>
4-[6-[[bis(2-hydroxy-2-oxoethyl)amino]methyl]-4-(2-phenylethynyl)pyridin-2-yl]-3-[[6-[[bis(2-hydroxy-2-oxoethyl)amino]methyl]-4-(2-phenylethynyl)pyridin-2-yl]methyl]butanoic acid

> <PUBCHEM_IUPAC_TRADITIONAL_NAME>
4-[6-[[bis(carboxymethyl)amino]methyl]-4-(2-phenylethynyl)-2-pyridyl]-3-[[6-[[bis(carboxymethyl)amino]methyl]-4-(2-phenylethynyl)-2-pyridyl]methyl]butyric acid

> <PUBCHEM_IUPAC_INCHI>
InChI=1S/C41H38N4O10/c46-37(47)21-32(19-33-15-30(13-11-28-7-3-1-4-8-28)17-35(42-33)22-44(24-38(48)49)25-39(50)51)20-34-16-31(14-12-29-9-5-2-6-10-29)18-36(43-34)23-45(26-40(52)53)27-41(54)55/h1-10,15-18,32H,19-27H2,(H,46,47)(H,48,49)(H,50,51)(H,52,53)(H,54,55)

> <PUBCHEM_IUPAC_INCHIKEY>
LJIWDOLXUQXLOF-UHFFFAOYSA-N

> <PUBCHEM_XLOGP3_AA>
-0.6

> <PUBCHEM_EXACT_MASS>
746.25879342

> <PUBCHEM_MOLECULAR_FORMULA>
C41H38N4O10

> <PUBCHEM_MOLECULAR_WEIGHT>
746.8

> <PUBCHEM_OPENEYE_CAN_SMILES>
C1=CC=C(C=C1)C#CC2=CC(=NC(=C2)CN(CC(=O)O)CC(=O)O)CC(CC3=NC(=CC(=C3)C#CC4=CC=CC=C4)CN(CC(=O)O)CC(=O)O)CC(=O)O

> <PUBCHEM_OPENEYE_ISO_SMILES>
C1=CC=C(C=C1)C#CC2=CC(=NC(=C2)CN(CC(=O)O)CC(=O)O)CC(CC3=NC(=CC(=C3)C#CC4=CC=CC=C4)CN(CC(=O)O)CC(=O)O)CC(=O)O

> <PUBCHEM_CACTVS_TPSA>
219

> <PUBCHEM_MONOISOTOPIC_WEIGHT>
746.25879342

> <PUBCHEM_TOTAL_CHARGE>
0

> <PUBCHEM_HEAVY_ATOM_COUNT>
55

> <PUBCHEM_ATOM_DEF_STEREO_COUNT>
0

> <PUBCHEM_ATOM_UDEF_STEREO_COUNT>
0

> <PUBCHEM_BOND_DEF_STEREO_COUNT>
0

> <PUBCHEM_BOND_UDEF_STEREO_COUNT>
0

> <PUBCHEM_ISOTOPIC_ATOM_COUNT>
0

> <PUBCHEM_COMPONENT_COUNT>
1

> <PUBCHEM_CACTVS_TAUTO_COUNT>
-1

> <PUBCHEM_COORDINATE_TYPE>
1
5
255

> <PUBCHEM_BONDANNOTATIONS>
11  19  8
11  24  8
12  20  8
12  25  8
19  22  8
20  23  8
22  28  8
23  29  8
24  30  8
25  31  8
28  30  8
29  31  8
44  46  8
44  48  8
45  47  8
45  49  8
46  50  8
47  51  8
48  52  8
49  53  8
50  54  8
51  55  8
52  54  8
53  55  8

$$$$
