 
  -OEChem-10192104322D

 81 85  0     1  0  0  0  0  0999 V2000
    6.9343   -0.3450    0.0000 O   0  0  0  0  0  0  0  0  0  0  0  0
    4.3362   -2.8450    0.0000 O   0  0  0  0  0  0  0  0  0  0  0  0
    6.0682   -2.8450    0.0000 O   0  0  0  0  0  0  0  0  0  0  0  0
    7.8003   -2.8450    0.0000 O   0  0  0  0  0  0  0  0  0  0  0  0
    9.5323   -1.8450    0.0000 O   0  0  0  0  0  0  0  0  0  0  0  0
    7.8003    1.1550    0.0000 O   0  0  0  0  0  0  0  0  0  0  0  0
    6.0682   -4.8450    0.0000 O   0  0  0  0  0  0  0  0  0  0  0  0
    9.5323    0.1550    0.0000 O   0  0  0  0  0  0  0  0  0  0  0  0
    4.3362   -5.8450    0.0000 O   0  0  0  0  0  0  0  0  0  0  0  0
    2.6042   -4.8450    0.0000 O   0  0  0  0  0  0  0  0  0  0  0  0
    2.6042   -1.8450    0.0000 O   0  0  0  0  0  0  0  0  0  0  0  0
    6.0682    3.1550    0.0000 O   0  0  0  0  0  0  0  0  0  0  0  0
    6.0682    0.1550    0.0000 O   0  0  0  0  0  0  0  0  0  0  0  0
    4.3198    0.1204    0.0000 O   0  0  0  0  0  0  0  0  0  0  0  0
   10.3984    2.6550    0.0000 O   0  0  0  0  0  0  0  0  0  0  0  0
    8.6663    5.6550    0.0000 O   0  0  0  0  0  0  0  0  0  0  0  0
    2.5381    3.1792    0.0000 O   0  0  0  0  0  0  0  0  0  0  0  0
   10.3984    4.6550    0.0000 O   0  0  0  0  0  0  0  0  0  0  0  0
    6.9343   -1.3450    0.0000 C   0  0  1  0  0  0  0  0  0  0  0  0
    7.8003   -1.8450    0.0000 C   0  0  2  0  0  0  0  0  0  0  0  0
    8.6663   -1.3450    0.0000 C   0  0  1  0  0  0  0  0  0  0  0  0
    5.2022   -4.3450    0.0000 C   0  0  2  0  0  0  0  0  0  0  0  0
    8.6663   -0.3450    0.0000 C   0  0  2  0  0  0  0  0  0  0  0  0
    4.3362   -4.8450    0.0000 C   0  0  2  0  0  0  0  0  0  0  0  0
    5.2022   -3.3450    0.0000 C   0  0  1  0  0  0  0  0  0  0  0  0
    3.4702   -4.3450    0.0000 C   0  0  1  0  0  0  0  0  0  0  0  0
    3.4702   -3.3450    0.0000 C   0  0  1  0  0  0  0  0  0  0  0  0
    7.8003    0.1550    0.0000 C   0  0  1  0  0  0  0  0  0  0  0  0
    6.0682   -1.8450    0.0000 C   0  0  0  0  0  0  0  0  0  0  0  0
    2.6042   -2.8450    0.0000 C   0  0  0  0  0  0  0  0  0  0  0  0
    6.9343    1.6550    0.0000 C   0  0  0  0  0  0  0  0  0  0  0  0
    6.9343    2.6550    0.0000 C   0  0  0  0  0  0  0  0  0  0  0  0
    6.0682    1.1550    0.0000 C   0  0  0  0  0  0  0  0  0  0  0  0
    5.2022    1.6550    0.0000 C   0  0  0  0  0  0  0  0  0  0  0  0
    7.8003    3.1550    0.0000 C   0  0  0  0  0  0  0  0  0  0  0  0
    5.2022    2.6550    0.0000 C   0  0  0  0  0  0  0  0  0  0  0  0
    4.3083    1.1203    0.0000 C   0  0  0  0  0  0  0  0  0  0  0  0
    4.3083    3.1897    0.0000 C   0  0  0  0  0  0  0  0  0  0  0  0
    7.8003    4.1550    0.0000 C   0  0  0  0  0  0  0  0  0  0  0  0
    8.6663    2.6550    0.0000 C   0  0  0  0  0  0  0  0  0  0  0  0
    3.4022    1.6342    0.0000 C   0  0  0  0  0  0  0  0  0  0  0  0
    3.4022    2.6758    0.0000 C   0  0  0  0  0  0  0  0  0  0  0  0
    9.5323    3.1550    0.0000 C   0  0  0  0  0  0  0  0  0  0  0  0
    8.6663    4.6550    0.0000 C   0  0  0  0  0  0  0  0  0  0  0  0
    9.5323    4.1550    0.0000 C   0  0  0  0  0  0  0  0  0  0  0  0
   10.3984    1.6550    0.0000 C   0  0  0  0  0  0  0  0  0  0  0  0
    7.8003    6.1550    0.0000 C   0  0  0  0  0  0  0  0  0  0  0  0
    6.3973   -1.0350    0.0000 H   0  0  0  0  0  0  0  0  0  0  0  0
    8.3372   -2.1550    0.0000 H   0  0  0  0  0  0  0  0  0  0  0  0
    9.2033   -1.0350    0.0000 H   0  0  0  0  0  0  0  0  0  0  0  0
    5.7392   -4.0350    0.0000 H   0  0  0  0  0  0  0  0  0  0  0  0
    9.2033   -0.6550    0.0000 H   0  0  0  0  0  0  0  0  0  0  0  0
    3.7993   -5.1550    0.0000 H   0  0  0  0  0  0  0  0  0  0  0  0
    5.2022   -2.7250    0.0000 H   0  0  0  0  0  0  0  0  0  0  0  0
    2.9332   -4.0350    0.0000 H   0  0  0  0  0  0  0  0  0  0  0  0
    3.4702   -2.7250    0.0000 H   0  0  0  0  0  0  0  0  0  0  0  0
    8.3372    0.4650    0.0000 H   0  0  0  0  0  0  0  0  0  0  0  0
    5.8562   -1.2624    0.0000 H   0  0  0  0  0  0  0  0  0  0  0  0
    5.4577   -1.9527    0.0000 H   0  0  0  0  0  0  0  0  0  0  0  0
    1.9936   -2.7373    0.0000 H   0  0  0  0  0  0  0  0  0  0  0  0
    2.3921   -3.4276    0.0000 H   0  0  0  0  0  0  0  0  0  0  0  0
    8.3372   -3.1550    0.0000 H   0  0  0  0  0  0  0  0  0  0  0  0
   10.0693   -1.5350    0.0000 H   0  0  0  0  0  0  0  0  0  0  0  0
    6.6052   -4.5350    0.0000 H   0  0  0  0  0  0  0  0  0  0  0  0
    9.5323    0.7750    0.0000 H   0  0  0  0  0  0  0  0  0  0  0  0
    3.7993   -6.1550    0.0000 H   0  0  0  0  0  0  0  0  0  0  0  0
    2.0672   -4.5350    0.0000 H   0  0  0  0  0  0  0  0  0  0  0  0
    2.0672   -1.5350    0.0000 H   0  0  0  0  0  0  0  0  0  0  0  0
    4.3154    3.8096    0.0000 H   0  0  0  0  0  0  0  0  0  0  0  0
    7.2634    4.4650    0.0000 H   0  0  0  0  0  0  0  0  0  0  0  0
    8.6663    2.0350    0.0000 H   0  0  0  0  0  0  0  0  0  0  0  0
    2.8665    1.3221    0.0000 H   0  0  0  0  0  0  0  0  0  0  0  0
    3.7865   -0.1958    0.0000 H   0  0  0  0  0  0  0  0  0  0  0  0
    2.0000    2.8712    0.0000 H   0  0  0  0  0  0  0  0  0  0  0  0
   10.9353    4.3450    0.0000 H   0  0  0  0  0  0  0  0  0  0  0  0
    9.7784    1.6550    0.0000 H   0  0  0  0  0  0  0  0  0  0  0  0
   10.3984    1.0350    0.0000 H   0  0  0  0  0  0  0  0  0  0  0  0
   11.0184    1.6550    0.0000 H   0  0  0  0  0  0  0  0  0  0  0  0
    8.1103    6.6919    0.0000 H   0  0  0  0  0  0  0  0  0  0  0  0
    7.2634    6.4650    0.0000 H   0  0  0  0  0  0  0  0  0  0  0  0
    7.4903    5.6181    0.0000 H   0  0  0  0  0  0  0  0  0  0  0  0
  1 19  1  0  0  0  0
  1 28  1  0  0  0  0
  2 25  1  0  0  0  0
  2 27  1  0  0  0  0
 25  3  1  1  0  0  0
  3 29  1  0  0  0  0
 20  4  1  6  0  0  0
  4 62  1  0  0  0  0
 21  5  1  1  0  0  0
  5 63  1  0  0  0  0
 28  6  1  1  0  0  0
  6 31  1  0  0  0  0
 22  7  1  6  0  0  0
  7 64  1  0  0  0  0
 23  8  1  6  0  0  0
  8 65  1  0  0  0  0
 24  9  1  1  0  0  0
  9 66  1  0  0  0  0
 26 10  1  6  0  0  0
 10 67  1  0  0  0  0
 11 30  1  0  0  0  0
 11 68  1  0  0  0  0
 12 32  1  0  0  0  0
 12 36  1  0  0  0  0
 13 33  2  0  0  0  0
 14 37  1  0  0  0  0
 14 73  1  0  0  0  0
 15 43  1  0  0  0  0
 15 46  1  0  0  0  0
 16 44  1  0  0  0  0
 16 47  1  0  0  0  0
 17 42  1  0  0  0  0
 17 74  1  0  0  0  0
 18 45  1  0  0  0  0
 18 75  1  0  0  0  0
 19 20  1  0  0  0  0
 19 29  1  1  0  0  0
 19 48  1  0  0  0  0
 20 21  1  0  0  0  0
 20 49  1  0  0  0  0
 21 23  1  0  0  0  0
 21 50  1  0  0  0  0
 22 24  1  0  0  0  0
 22 25  1  0  0  0  0
 22 51  1  0  0  0  0
 23 28  1  0  0  0  0
 23 52  1  0  0  0  0
 24 26  1  0  0  0  0
 24 53  1  0  0  0  0
 25 54  1  0  0  0  0
 26 27  1  0  0  0  0
 26 55  1  0  0  0  0
 27 30  1  1  0  0  0
 27 56  1  0  0  0  0
 28 57  1  0  0  0  0
 29 58  1  0  0  0  0
 29 59  1  0  0  0  0
 30 60  1  0  0  0  0
 30 61  1  0  0  0  0
 31 32  2  0  0  0  0
 31 33  1  0  0  0  0
 32 35  1  0  0  0  0
 33 34  1  0  0  0  0
 34 36  1  0  0  0  0
 34 37  2  0  0  0  0
 35 39  2  0  0  0  0
 35 40  1  0  0  0  0
 36 38  2  0  0  0  0
 37 41  1  0  0  0  0
 38 42  1  0  0  0  0
 38 69  1  0  0  0  0
 39 44  1  0  0  0  0
 39 70  1  0  0  0  0
 40 43  2  0  0  0  0
 40 71  1  0  0  0  0
 41 42  2  0  0  0  0
 41 72  1  0  0  0  0
 43 45  1  0  0  0  0
 44 45  2  0  0  0  0
 46 76  1  0  0  0  0
 46 77  1  0  0  0  0
 46 78  1  0  0  0  0
 47 79  1  0  0  0  0
 47 80  1  0  0  0  0
 47 81  1  0  0  0  0
M  END
> <PUBCHEM_COMPOUND_CID>
16109838

> <PUBCHEM_COMPOUND_CANONICALIZED>
1

> <PUBCHEM_CACTVS_COMPLEXITY>
1090

> <PUBCHEM_CACTVS_HBOND_ACCEPTOR>
18

> <PUBCHEM_CACTVS_HBOND_DONOR>
10

> <PUBCHEM_CACTVS_ROTATABLE_BOND>
9

> <PUBCHEM_CACTVS_SUBSKEYS>
AAADcfB4PgAAAAAAAAAAAAAAAAAAAAAAAAA0aIECAAAAAACBQAAAGgAACAAADBSwmAMyDoAABgCIAqBSAAICCAAkIAAAiAFGiMgdNzaGNR6ieWOl4BUPuQfI7LzOIAABCAAIQABAAAIQABCAAAAAAAAAAA==

> <PUBCHEM_IUPAC_OPENEYE_NAME>
5,7-dihydroxy-2-(4-hydroxy-3,5-dimethoxy-phenyl)-3-[(2S,3R,4S,5S,6R)-3,4,5-trihydroxy-6-[[(2R,3R,4S,5S,6R)-3,4,5-trihydroxy-6-(hydroxymethyl)tetrahydropyran-2-yl]oxymethyl]tetrahydropyran-2-yl]oxy-chromen-4-one

> <PUBCHEM_IUPAC_CAS_NAME>
5,7-dihydroxy-2-(4-hydroxy-3,5-dimethoxyphenyl)-3-[[(2S,3R,4S,5S,6R)-3,4,5-trihydroxy-6-[[(2R,3R,4S,5S,6R)-3,4,5-trihydroxy-6-(hydroxymethyl)-2-oxanyl]oxymethyl]-2-oxanyl]oxy]-1-benzopyran-4-one

> <PUBCHEM_IUPAC_NAME_MARKUP>
5,7-dihydroxy-2-(4-hydroxy-3,5-dimethoxyphenyl)-3-[(2<I>S</I>,3<I>R</I>,4<I>S</I>,5<I>S</I>,6<I>R</I>)-3,4,5-trihydroxy-6-[[(2<I>R</I>,3<I>R</I>,4<I>S</I>,5<I>S</I>,6<I>R</I>)-3,4,5-trihydroxy-6-(hydroxymethyl)oxan-2-yl]oxymethyl]oxan-2-yl]oxychromen-4-one

> <PUBCHEM_IUPAC_NAME>
5,7-dihydroxy-2-(4-hydroxy-3,5-dimethoxyphenyl)-3-[(2S,3R,4S,5S,6R)-3,4,5-trihydroxy-6-[[(2R,3R,4S,5S,6R)-3,4,5-trihydroxy-6-(hydroxymethyl)oxan-2-yl]oxymethyl]oxan-2-yl]oxychromen-4-one

> <PUBCHEM_IUPAC_SYSTEMATIC_NAME>
2-(3,5-dimethoxy-4-oxidanyl-phenyl)-3-[(2S,3R,4S,5S,6R)-6-[[(2R,3R,4S,5S,6R)-6-(hydroxymethyl)-3,4,5-tris(oxidanyl)oxan-2-yl]oxymethyl]-3,4,5-tris(oxidanyl)oxan-2-yl]oxy-5,7-bis(oxidanyl)chromen-4-one

> <PUBCHEM_IUPAC_TRADITIONAL_NAME>
5,7-dihydroxy-2-(4-hydroxy-3,5-dimethoxy-phenyl)-3-[(2S,3R,4S,5S,6R)-3,4,5-trihydroxy-6-[[(2R,3R,4S,5S,6R)-3,4,5-trihydroxy-6-methylol-tetrahydropyran-2-yl]oxymethyl]tetrahydropyran-2-yl]oxy-chromone

> <PUBCHEM_IUPAC_INCHI>
InChI=1S/C29H34O18/c1-41-13-3-9(4-14(42-2)18(13)33)26-27(21(36)17-11(32)5-10(31)6-12(17)44-26)47-29-25(40)23(38)20(35)16(46-29)8-43-28-24(39)22(37)19(34)15(7-30)45-28/h3-6,15-16,19-20,22-25,28-35,37-40H,7-8H2,1-2H3/t15-,16-,19-,20-,22+,23+,24-,25-,28-,29+/m1/s1

> <PUBCHEM_IUPAC_INCHIKEY>
XQNUUVURUCLCRZ-CJCKZRPTSA-N

> <PUBCHEM_XLOGP3_AA>
-1.5

> <PUBCHEM_EXACT_MASS>
670.17451423

> <PUBCHEM_MOLECULAR_FORMULA>
C29H34O18

> <PUBCHEM_MOLECULAR_WEIGHT>
670.6

> <PUBCHEM_OPENEYE_CAN_SMILES>
COC1=CC(=CC(=C1O)OC)C2=C(C(=O)C3=C(C=C(C=C3O2)O)O)OC4C(C(C(C(O4)COC5C(C(C(C(O5)CO)O)O)O)O)O)O

> <PUBCHEM_OPENEYE_ISO_SMILES>
COC1=CC(=CC(=C1O)OC)C2=C(C(=O)C3=C(C=C(C=C3O2)O)O)O[C@H]4[C@@H]([C@H]([C@@H]([C@H](O4)CO[C@H]5[C@@H]([C@H]([C@@H]([C@H](O5)CO)O)O)O)O)O)O

> <PUBCHEM_CACTVS_TPSA>
284

> <PUBCHEM_MONOISOTOPIC_WEIGHT>
670.17451423

> <PUBCHEM_TOTAL_CHARGE>
0

> <PUBCHEM_HEAVY_ATOM_COUNT>
47

> <PUBCHEM_ATOM_DEF_STEREO_COUNT>
10

> <PUBCHEM_ATOM_UDEF_STEREO_COUNT>
0

> <PUBCHEM_BOND_DEF_STEREO_COUNT>
0

> <PUBCHEM_BOND_UDEF_STEREO_COUNT>
0

> <PUBCHEM_ISOTOPIC_ATOM_COUNT>
0

> <PUBCHEM_COMPONENT_COUNT>
1

> <PUBCHEM_CACTVS_TAUTO_COUNT>
-1

> <PUBCHEM_COORDINATE_TYPE>
1
5
255

> <PUBCHEM_BONDANNOTATIONS>
26  10  6
12  32  8
12  36  8
19  29  5
27  30  5
25  3  5
31  32  8
31  33  8
33  34  8
34  36  8
34  37  8
35  39  8
35  40  8
36  38  8
37  41  8
38  42  8
39  44  8
20  4  6
40  43  8
41  42  8
43  45  8
44  45  8
21  5  5
28  6  5
22  7  6
23  8  6
24  9  5

$$$$
