 
  -OEChem-10192103282D

 22 22  0     1  0  0  0  0  0999 V2000
    5.0298   -0.5357    0.0000 O   0  0  0  0  0  0  0  0  0  0  0  0
    2.4608   -0.2266    0.0000 O   0  0  0  0  0  0  0  0  0  0  0  0
    3.1330   -2.2957    0.0000 O   0  0  0  0  0  0  0  0  0  0  0  0
    3.3548    1.5521    0.0000 O   0  0  0  0  0  0  0  0  0  0  0  0
    5.0868    2.5521    0.0000 O   0  0  0  0  0  0  0  0  0  0  0  0
    5.9529    1.0521    0.0000 O   0  0  0  0  0  0  0  0  0  0  0  0
    4.2208    0.0521    0.0000 C   0  0  1  0  0  0  0  0  0  0  0  0
    3.4118   -0.5357    0.0000 C   0  0  2  0  0  0  0  0  0  0  0  0
    3.7208   -1.4867    0.0000 C   0  0  1  0  0  0  0  0  0  0  0  0
    4.7208   -1.4867    0.0000 C   0  0  0  0  0  0  0  0  0  0  0  0
    4.2208    1.0521    0.0000 C   0  0  2  0  0  0  0  0  0  0  0  0
    5.0868    1.5521    0.0000 C   0  0  0  0  0  0  0  0  0  0  0  0
    4.9782    0.4380    0.0000 H   0  0  0  0  0  0  0  0  0  0  0  0
    3.3148    0.0767    0.0000 H   0  0  0  0  0  0  0  0  0  0  0  0
    3.1085   -1.3897    0.0000 H   0  0  0  0  0  0  0  0  0  0  0  0
    4.6560   -2.1033    0.0000 H   0  0  0  0  0  0  0  0  0  0  0  0
    5.3273   -1.6156    0.0000 H   0  0  0  0  0  0  0  0  0  0  0  0
    4.2208    1.6721    0.0000 H   0  0  0  0  0  0  0  0  0  0  0  0
    2.0000   -0.6415    0.0000 H   0  0  0  0  0  0  0  0  0  0  0  0
    3.3852   -2.8621    0.0000 H   0  0  0  0  0  0  0  0  0  0  0  0
    3.3548    2.1721    0.0000 H   0  0  0  0  0  0  0  0  0  0  0  0
    5.6238    2.8621    0.0000 H   0  0  0  0  0  0  0  0  0  0  0  0
  1  7  1  0  0  0  0
  1 10  1  0  0  0  0
  8  2  1  6  0  0  0
  2 19  1  0  0  0  0
  9  3  1  1  0  0  0
  3 20  1  0  0  0  0
 11  4  1  1  0  0  0
  4 21  1  0  0  0  0
  5 12  1  0  0  0  0
  5 22  1  0  0  0  0
  6 12  2  0  0  0  0
  7  8  1  0  0  0  0
  7 11  1  0  0  0  0
  7 13  1  6  0  0  0
  8  9  1  0  0  0  0
  8 14  1  0  0  0  0
  9 10  1  0  0  0  0
  9 15  1  0  0  0  0
 10 16  1  0  0  0  0
 10 17  1  0  0  0  0
 11 12  1  0  0  0  0
 11 18  1  0  0  0  0
M  END
> <PUBCHEM_COMPOUND_CID>
10943017

> <PUBCHEM_COMPOUND_CANONICALIZED>
1

> <PUBCHEM_CACTVS_COMPLEXITY>
181

> <PUBCHEM_CACTVS_HBOND_ACCEPTOR>
6

> <PUBCHEM_CACTVS_HBOND_DONOR>
4

> <PUBCHEM_CACTVS_ROTATABLE_BOND>
2

> <PUBCHEM_CACTVS_SUBSKEYS>
AAADccBgOAAAAAAAAAAAAAAAAAAAASAAAAAAAAAAAAAAAAAAAAAAGgAACAAACBSggAIACAAABgAIAACQCAIAAAAAAAAAAAFAAAABEBYAAAACQAAFIAADAAHKbARAAAAAAAAAAAAAAAAAAAAAAAAAAAAAAA==

> <PUBCHEM_IUPAC_OPENEYE_NAME>
(2R)-2-[(2S,3S,4R)-3,4-dihydroxytetrahydrofuran-2-yl]-2-hydroxy-acetic acid

> <PUBCHEM_IUPAC_CAS_NAME>
(2R)-2-[(2S,3S,4R)-3,4-dihydroxy-2-oxolanyl]-2-hydroxyacetic acid

> <PUBCHEM_IUPAC_NAME_MARKUP>
(2<I>R</I>)-2-[(2<I>S</I>,3<I>S</I>,4<I>R</I>)-3,4-dihydroxyoxolan-2-yl]-2-hydroxyacetic acid

> <PUBCHEM_IUPAC_NAME>
(2R)-2-[(2S,3S,4R)-3,4-dihydroxyoxolan-2-yl]-2-hydroxyacetic acid

> <PUBCHEM_IUPAC_SYSTEMATIC_NAME>
(2R)-2-[(2S,3S,4R)-3,4-bis(oxidanyl)oxolan-2-yl]-2-oxidanyl-ethanoic acid

> <PUBCHEM_IUPAC_TRADITIONAL_NAME>
(2R)-2-[(2S,3S,4R)-3,4-dihydroxytetrahydrofuran-2-yl]-2-hydroxy-acetic acid

> <PUBCHEM_IUPAC_INCHI>
InChI=1S/C6H10O6/c7-2-1-12-5(3(2)8)4(9)6(10)11/h2-5,7-9H,1H2,(H,10,11)/t2-,3+,4-,5+/m1/s1

> <PUBCHEM_IUPAC_INCHIKEY>
ZDDQAAZBPZGPRB-LECHCGJUSA-N

> <PUBCHEM_XLOGP3_AA>
-1.8

> <PUBCHEM_EXACT_MASS>
178.04773803

> <PUBCHEM_MOLECULAR_FORMULA>
C6H10O6

> <PUBCHEM_MOLECULAR_WEIGHT>
178.14

> <PUBCHEM_OPENEYE_CAN_SMILES>
C1C(C(C(O1)C(C(=O)O)O)O)O

> <PUBCHEM_OPENEYE_ISO_SMILES>
C1[C@H]([C@@H]([C@H](O1)[C@H](C(=O)O)O)O)O

> <PUBCHEM_CACTVS_TPSA>
107

> <PUBCHEM_MONOISOTOPIC_WEIGHT>
178.04773803

> <PUBCHEM_TOTAL_CHARGE>
0

> <PUBCHEM_HEAVY_ATOM_COUNT>
12

> <PUBCHEM_ATOM_DEF_STEREO_COUNT>
4

> <PUBCHEM_ATOM_UDEF_STEREO_COUNT>
0

> <PUBCHEM_BOND_DEF_STEREO_COUNT>
0

> <PUBCHEM_BOND_UDEF_STEREO_COUNT>
0

> <PUBCHEM_ISOTOPIC_ATOM_COUNT>
0

> <PUBCHEM_COMPONENT_COUNT>
1

> <PUBCHEM_CACTVS_TAUTO_COUNT>
-1

> <PUBCHEM_COORDINATE_TYPE>
1
5
255

> <PUBCHEM_BONDANNOTATIONS>
8  2  6
9  3  5
11  4  5
7  13  6

$$$$
