 
  -OEChem-10192104372D

 83 86  0     1  0  0  0  0  0999 V2000
    2.9019   -0.0215    0.0000 O   0  0  0  0  0  0  0  0  0  0  0  0
    5.8250   -2.2430    0.0000 O   0  0  0  0  0  0  0  0  0  0  0  0
    7.5851   -0.9642    0.0000 O   0  0  0  0  0  0  0  0  0  0  0  0
    7.5571   -2.2430    0.0000 O   0  0  0  0  0  0  0  0  0  0  0  0
    9.2793   -0.6041    0.0000 O   0  0  0  0  0  0  0  0  0  0  0  0
    4.8632    5.0056    0.0000 O   0  0  0  0  0  0  0  0  0  0  0  0
    5.8250   -4.2430    0.0000 O   0  0  0  0  0  0  0  0  0  0  0  0
    7.1693    0.9921    0.0000 O   0  0  0  0  0  0  0  0  0  0  0  0
    7.5571   -5.2430    0.0000 O   0  0  0  0  0  0  0  0  0  0  0  0
    8.6556    2.3303    0.0000 O   0  0  0  0  0  0  0  0  0  0  0  0
    9.2892   -4.2430    0.0000 O   0  0  0  0  0  0  0  0  0  0  0  0
   10.5577    1.7123    0.0000 O   0  0  0  0  0  0  0  0  0  0  0  0
   10.1552   -2.7430    0.0000 O   0  0  0  0  0  0  0  0  0  0  0  0
   11.7167    0.4251    0.0000 O   0  0  0  0  0  0  0  0  0  0  0  0
    4.5746   -0.4205    0.0000 C   0  0  2  0  0  0  0  0  0  0  0  0
    4.9841    1.5436    0.0000 C   0  0  2  0  0  0  0  0  0  0  0  0
    4.2822    0.5358    0.0000 C   0  0  1  0  0  0  0  0  0  0  0  0
    5.8250   -1.2430    0.0000 C   0  0  2  0  0  0  0  0  0  0  0  0
    6.3250    0.2959    0.0000 C   0  0  0  0  0  0  0  0  0  0  0  0
    6.6341   -0.6552    0.0000 C   0  0  1  0  0  0  0  0  0  0  0  0
    3.1942   -0.9778    0.0000 C   0  0  0  0  0  0  0  0  0  0  0  0
    5.4535    2.4265    0.0000 C   0  0  0  0  0  0  0  0  0  0  0  0
    4.8669   -1.3768    0.0000 C   0  0  0  0  0  0  0  0  0  0  0  0
    3.9898    1.4922    0.0000 C   0  0  0  0  0  0  0  0  0  0  0  0
    4.9236    3.2746    0.0000 C   0  0  0  0  0  0  0  0  0  0  0  0
    6.6911   -2.7430    0.0000 C   0  0  2  0  0  0  0  0  0  0  0  0
    8.3283   -0.2951    0.0000 C   0  0  2  0  0  0  0  0  0  0  0  0
    5.3931    4.1575    0.0000 C   0  0  1  0  0  0  0  0  0  0  0  0
    6.6911   -3.7430    0.0000 C   0  0  1  0  0  0  0  0  0  0  0  0
    8.1204    0.6831    0.0000 C   0  0  1  0  0  0  0  0  0  0  0  0
    7.5571   -4.2430    0.0000 C   0  0  2  0  0  0  0  0  0  0  0  0
    8.4231   -2.7430    0.0000 C   0  0  1  0  0  0  0  0  0  0  0  0
    8.8635    1.3522    0.0000 C   0  0  2  0  0  0  0  0  0  0  0  0
    8.4231   -3.7430    0.0000 C   0  0  1  0  0  0  0  0  0  0  0  0
    6.3925    4.1924    0.0000 C   0  0  0  0  0  0  0  0  0  0  0  0
   10.0225    0.0650    0.0000 C   0  0  1  0  0  0  0  0  0  0  0  0
    9.8146    1.0432    0.0000 C   0  0  1  0  0  0  0  0  0  0  0  0
    9.2892   -2.2430    0.0000 C   0  0  0  0  0  0  0  0  0  0  0  0
   10.9735   -0.2440    0.0000 C   0  0  0  0  0  0  0  0  0  0  0  0
    4.4550    1.8668    0.0000 H   0  0  0  0  0  0  0  0  0  0  0  0
    6.3775   -1.5245    0.0000 H   0  0  0  0  0  0  0  0  0  0  0  0
    6.3085    0.9156    0.0000 H   0  0  0  0  0  0  0  0  0  0  0  0
    6.9361    0.4010    0.0000 H   0  0  0  0  0  0  0  0  0  0  0  0
    6.7311   -1.2676    0.0000 H   0  0  0  0  0  0  0  0  0  0  0  0
    3.4096   -1.5592    0.0000 H   0  0  0  0  0  0  0  0  0  0  0  0
    2.6068   -1.1762    0.0000 H   0  0  0  0  0  0  0  0  0  0  0  0
    5.9143    2.8414    0.0000 H   0  0  0  0  0  0  0  0  0  0  0  0
    5.9421    2.0448    0.0000 H   0  0  0  0  0  0  0  0  0  0  0  0
    5.4598   -1.1955    0.0000 H   0  0  0  0  0  0  0  0  0  0  0  0
    5.0482   -1.9697    0.0000 H   0  0  0  0  0  0  0  0  0  0  0  0
    4.2740   -1.5580    0.0000 H   0  0  0  0  0  0  0  0  0  0  0  0
    3.3969    1.3109    0.0000 H   0  0  0  0  0  0  0  0  0  0  0  0
    3.8086    2.0851    0.0000 H   0  0  0  0  0  0  0  0  0  0  0  0
    4.5827    1.6734    0.0000 H   0  0  0  0  0  0  0  0  0  0  0  0
    4.4629    2.8597    0.0000 H   0  0  0  0  0  0  0  0  0  0  0  0
    4.4351    3.6563    0.0000 H   0  0  0  0  0  0  0  0  0  0  0  0
    6.6911   -2.1230    0.0000 H   0  0  0  0  0  0  0  0  0  0  0  0
    7.7386   -0.1035    0.0000 H   0  0  0  0  0  0  0  0  0  0  0  0
    5.6842    4.7049    0.0000 H   0  0  0  0  0  0  0  0  0  0  0  0
    6.6911   -4.3630    0.0000 H   0  0  0  0  0  0  0  0  0  0  0  0
    7.9914    1.2895    0.0000 H   0  0  0  0  0  0  0  0  0  0  0  0
    8.0940   -4.5530    0.0000 H   0  0  0  0  0  0  0  0  0  0  0  0
    8.4231   -2.1230    0.0000 H   0  0  0  0  0  0  0  0  0  0  0  0
    9.3242    1.7670    0.0000 H   0  0  0  0  0  0  0  0  0  0  0  0
    8.4231   -4.3630    0.0000 H   0  0  0  0  0  0  0  0  0  0  0  0
    6.3708    4.8120    0.0000 H   0  0  0  0  0  0  0  0  0  0  0  0
    7.0121    4.2140    0.0000 H   0  0  0  0  0  0  0  0  0  0  0  0
    6.4141    3.5728    0.0000 H   0  0  0  0  0  0  0  0  0  0  0  0
   10.1514   -0.5414    0.0000 H   0  0  0  0  0  0  0  0  0  0  0  0
   10.4042    0.8516    0.0000 H   0  0  0  0  0  0  0  0  0  0  0  0
    5.1542    5.5530    0.0000 H   0  0  0  0  0  0  0  0  0  0  0  0
    5.8250   -4.8630    0.0000 H   0  0  0  0  0  0  0  0  0  0  0  0
    8.8906   -1.7680    0.0000 H   0  0  0  0  0  0  0  0  0  0  0  0
    9.6877   -1.7680    0.0000 H   0  0  0  0  0  0  0  0  0  0  0  0
    7.0404    1.5985    0.0000 H   0  0  0  0  0  0  0  0  0  0  0  0
   11.4621   -0.6257    0.0000 H   0  0  0  0  0  0  0  0  0  0  0  0
   10.6825   -0.7914    0.0000 H   0  0  0  0  0  0  0  0  0  0  0  0
    8.0940   -5.5530    0.0000 H   0  0  0  0  0  0  0  0  0  0  0  0
    9.1163    2.7452    0.0000 H   0  0  0  0  0  0  0  0  0  0  0  0
    9.2892   -4.8630    0.0000 H   0  0  0  0  0  0  0  0  0  0  0  0
   10.4288    2.3188    0.0000 H   0  0  0  0  0  0  0  0  0  0  0  0
   10.6921   -2.4330    0.0000 H   0  0  0  0  0  0  0  0  0  0  0  0
   12.3063    0.2336    0.0000 H   0  0  0  0  0  0  0  0  0  0  0  0
  1 17  1  0  0  0  0
  1 21  1  0  0  0  0
 18  2  1  6  0  0  0
 26  2  1  6  0  0  0
 20  3  1  1  0  0  0
 27  3  1  1  0  0  0
  4 26  1  0  0  0  0
  4 32  1  0  0  0  0
  5 27  1  0  0  0  0
  5 36  1  0  0  0  0
 28  6  1  6  0  0  0
  6 71  1  0  0  0  0
 29  7  1  1  0  0  0
  7 72  1  0  0  0  0
 30  8  1  6  0  0  0
  8 75  1  0  0  0  0
 31  9  1  6  0  0  0
  9 78  1  0  0  0  0
 33 10  1  1  0  0  0
 10 79  1  0  0  0  0
 34 11  1  1  0  0  0
 11 80  1  0  0  0  0
 37 12  1  6  0  0  0
 12 81  1  0  0  0  0
 13 38  1  0  0  0  0
 13 82  1  0  0  0  0
 14 39  1  0  0  0  0
 14 83  1  0  0  0  0
 15 16  1  0  0  0  0
 15 18  1  0  0  0  0
 15 21  1  0  0  0  0
 15 23  1  1  0  0  0
 16 17  1  0  0  0  0
 16 22  1  6  0  0  0
 16 40  1  0  0  0  0
 17 19  1  0  0  0  0
 17 24  1  6  0  0  0
 18 20  1  0  0  0  0
 18 41  1  0  0  0  0
 19 20  1  0  0  0  0
 19 42  1  0  0  0  0
 19 43  1  0  0  0  0
 20 44  1  0  0  0  0
 21 45  1  0  0  0  0
 21 46  1  0  0  0  0
 22 25  1  0  0  0  0
 22 47  1  0  0  0  0
 22 48  1  0  0  0  0
 23 49  1  0  0  0  0
 23 50  1  0  0  0  0
 23 51  1  0  0  0  0
 24 52  1  0  0  0  0
 24 53  1  0  0  0  0
 24 54  1  0  0  0  0
 25 28  1  0  0  0  0
 25 55  1  0  0  0  0
 25 56  1  0  0  0  0
 26 29  1  0  0  0  0
 26 57  1  0  0  0  0
 27 30  1  0  0  0  0
 27 58  1  0  0  0  0
 28 35  1  0  0  0  0
 28 59  1  0  0  0  0
 29 31  1  0  0  0  0
 29 60  1  0  0  0  0
 30 33  1  0  0  0  0
 30 61  1  0  0  0  0
 31 34  1  0  0  0  0
 31 62  1  0  0  0  0
 32 34  1  0  0  0  0
 32 38  1  6  0  0  0
 32 63  1  0  0  0  0
 33 37  1  0  0  0  0
 33 64  1  0  0  0  0
 34 65  1  0  0  0  0
 35 66  1  0  0  0  0
 35 67  1  0  0  0  0
 35 68  1  0  0  0  0
 36 37  1  0  0  0  0
 36 39  1  1  0  0  0
 36 69  1  0  0  0  0
 37 70  1  0  0  0  0
 38 73  1  0  0  0  0
 38 74  1  0  0  0  0
 39 76  1  0  0  0  0
 39 77  1  0  0  0  0
M  END
> <PUBCHEM_COMPOUND_CID>
102022916

> <PUBCHEM_COMPOUND_CANONICALIZED>
1

> <PUBCHEM_CACTVS_COMPLEXITY>
820

> <PUBCHEM_CACTVS_HBOND_ACCEPTOR>
14

> <PUBCHEM_CACTVS_HBOND_DONOR>
9

> <PUBCHEM_CACTVS_ROTATABLE_BOND>
9

> <PUBCHEM_CACTVS_SUBSKEYS>
AAADcfB4PAAAAAAAAAAAAAAAAAAAASAAAAA0SIAABIAAAAAAAAAAGgAACAAAD1SwgAMCCAAABgAAAAAAAAAAAAAAAAAAAAAAAAAREAIAAAAiQAAFAAAHAAHA4PwPgAAAAAAAAABCAAYQADCAAAAAAAAAAA==

> <PUBCHEM_IUPAC_OPENEYE_NAME>
(2R,3R,4S,5S,6R)-2-[[(1S,2R,3R,5R,8R)-8-[(3R)-3-hydroxybutyl]-1,5-dimethyl-2-[(2R,3R,4S,5S,6R)-3,4,5-trihydroxy-6-(hydroxymethyl)tetrahydropyran-2-yl]oxy-6-oxabicyclo[3.2.1]octan-3-yl]oxy]-6-(hydroxymethyl)tetrahydropyran-3,4,5-triol

> <PUBCHEM_IUPAC_CAS_NAME>
(2R,3R,4S,5S,6R)-2-[[(1S,2R,3R,5R,8R)-8-[(3R)-3-hydroxybutyl]-1,5-dimethyl-2-[[(2R,3R,4S,5S,6R)-3,4,5-trihydroxy-6-(hydroxymethyl)-2-oxanyl]oxy]-6-oxabicyclo[3.2.1]octan-3-yl]oxy]-6-(hydroxymethyl)oxane-3,4,5-triol

> <PUBCHEM_IUPAC_NAME_MARKUP>
(2<I>R</I>,3<I>R</I>,4<I>S</I>,5<I>S</I>,6<I>R</I>)-2-[[(1<I>S</I>,2<I>R</I>,3<I>R</I>,5<I>R</I>,8<I>R</I>)-8-[(3<I>R</I>)-3-hydroxybutyl]-1,5-dimethyl-2-[(2<I>R</I>,3<I>R</I>,4<I>S</I>,5<I>S</I>,6<I>R</I>)-3,4,5-trihydroxy-6-(hydroxymethyl)oxan-2-yl]oxy-6-oxabicyclo[3.2.1]octan-3-yl]oxy]-6-(hydroxymethyl)oxane-3,4,5-triol

> <PUBCHEM_IUPAC_NAME>
(2R,3R,4S,5S,6R)-2-[[(1S,2R,3R,5R,8R)-8-[(3R)-3-hydroxybutyl]-1,5-dimethyl-2-[(2R,3R,4S,5S,6R)-3,4,5-trihydroxy-6-(hydroxymethyl)oxan-2-yl]oxy-6-oxabicyclo[3.2.1]octan-3-yl]oxy]-6-(hydroxymethyl)oxane-3,4,5-triol

> <PUBCHEM_IUPAC_SYSTEMATIC_NAME>
(2R,3S,4S,5R,6R)-2-(hydroxymethyl)-6-[[(1S,2R,3R,5R,8R)-2-[(2R,3R,4S,5S,6R)-6-(hydroxymethyl)-3,4,5-tris(oxidanyl)oxan-2-yl]oxy-1,5-dimethyl-8-[(3R)-3-oxidanylbutyl]-6-oxabicyclo[3.2.1]octan-3-yl]oxy]oxane-3,4,5-triol

> <PUBCHEM_IUPAC_TRADITIONAL_NAME>
(2R,3R,4S,5S,6R)-2-[[(1S,2R,3R,5R,8R)-8-[(3R)-3-hydroxybutyl]-1,5-dimethyl-2-[(2R,3R,4S,5S,6R)-3,4,5-trihydroxy-6-methylol-tetrahydropyran-2-yl]oxy-6-oxabicyclo[3.2.1]octan-3-yl]oxy]-6-methylol-tetrahydropyran-3,4,5-triol

> <PUBCHEM_IUPAC_INCHI>
InChI=1S/C25H44O14/c1-10(28)4-5-14-24(2)9-35-25(14,3)6-11(36-22-19(33)17(31)15(29)12(7-26)37-22)21(24)39-23-20(34)18(32)16(30)13(8-27)38-23/h10-23,26-34H,4-9H2,1-3H3/t10-,11-,12-,13-,14-,15-,16-,17+,18+,19-,20-,21+,22-,23+,24-,25-/m1/s1

> <PUBCHEM_IUPAC_INCHIKEY>
VQDNPQJSTUSFJJ-JGCFSHNQSA-N

> <PUBCHEM_XLOGP3_AA>
-2.8

> <PUBCHEM_EXACT_MASS>
568.27310607

> <PUBCHEM_MOLECULAR_FORMULA>
C25H44O14

> <PUBCHEM_MOLECULAR_WEIGHT>
568.6

> <PUBCHEM_OPENEYE_CAN_SMILES>
CC(CCC1C2(CC(C(C1(CO2)C)OC3C(C(C(C(O3)CO)O)O)O)OC4C(C(C(C(O4)CO)O)O)O)C)O

> <PUBCHEM_OPENEYE_ISO_SMILES>
C[C@H](CC[C@H]1[C@]2(C[C@H]([C@@H]([C@@]1(CO2)C)O[C@H]3[C@@H]([C@H]([C@@H]([C@H](O3)CO)O)O)O)O[C@H]4[C@@H]([C@H]([C@@H]([C@H](O4)CO)O)O)O)C)O

> <PUBCHEM_CACTVS_TPSA>
228

> <PUBCHEM_MONOISOTOPIC_WEIGHT>
568.27310607

> <PUBCHEM_TOTAL_CHARGE>
0

> <PUBCHEM_HEAVY_ATOM_COUNT>
39

> <PUBCHEM_ATOM_DEF_STEREO_COUNT>
16

> <PUBCHEM_ATOM_UDEF_STEREO_COUNT>
0

> <PUBCHEM_BOND_DEF_STEREO_COUNT>
0

> <PUBCHEM_BOND_UDEF_STEREO_COUNT>
0

> <PUBCHEM_ISOTOPIC_ATOM_COUNT>
0

> <PUBCHEM_COMPONENT_COUNT>
1

> <PUBCHEM_CACTVS_TAUTO_COUNT>
-1

> <PUBCHEM_COORDINATE_TYPE>
1
5
255

> <PUBCHEM_BONDANNOTATIONS>
33  10  5
34  11  5
37  12  6
15  23  5
16  22  6
17  24  6
18  2  6
26  2  6
20  3  5
27  3  5
32  38  6
36  39  5
28  6  6
29  7  5
30  8  6
31  9  6

$$$$
