 
  -OEChem-10192103352D

 72 78  0     1  0  0  0  0  0999 V2000
    4.7126    1.5265    0.0000 O   0  0  0  0  0  0  0  0  0  0  0  0
    8.1775    1.6399    0.0000 O   0  0  0  0  0  0  0  0  0  0  0  0
    6.1226   -1.6198    0.0000 O   0  0  0  0  0  0  0  0  0  0  0  0
    5.5092    3.6862    0.0000 O   0  0  0  0  0  0  0  0  0  0  0  0
    5.0263   -4.1842    0.0000 O   0  0  0  0  0  0  0  0  0  0  0  0
    2.5127   -1.3503    0.0000 O   0  0  0  0  0  0  0  0  0  0  0  0
    7.1214   -1.5745    0.0000 O   0  0  0  0  0  0  0  0  0  0  0  0
   10.6198   -1.0342    0.0000 O   0  0  0  0  0  0  0  0  0  0  0  0
    9.1953    4.2871    0.0000 O   0  0  0  0  0  0  0  0  0  0  0  0
    7.7811    5.7013    0.0000 O   0  0  0  0  0  0  0  0  0  0  0  0
    7.6181   -5.7990    0.0000 O   0  0  0  0  0  0  0  0  0  0  0  0
    9.4054   -4.9015    0.0000 O   0  0  0  0  0  0  0  0  0  0  0  0
    6.4870    0.8717    0.0000 C   0  0  3  0  0  0  0  0  0  0  0  0
    6.0092    2.8202    0.0000 C   0  0  2  0  0  0  0  0  0  0  0  0
    6.7458    1.8376    0.0000 C   0  0  2  0  0  0  0  0  0  0  0  0
    5.2660    0.0060    0.0000 C   0  0  0  0  0  0  0  0  0  0  0  0
    7.7587    0.0770    0.0000 C   0  0  0  0  0  0  0  0  0  0  0  0
    5.2094   -1.0341    0.0000 C   0  0  0  0  0  0  0  0  0  0  0  0
    4.4370    0.5652    0.0000 C   0  0  0  0  0  0  0  0  0  0  0  0
    4.1927   -2.5796    0.0000 C   0  0  2  0  0  0  0  0  0  0  0  0
    4.2767   -1.4979    0.0000 C   0  0  0  0  0  0  0  0  0  0  0  0
    5.0922   -3.1864    0.0000 C   0  0  1  0  0  0  0  0  0  0  0  0
    8.5358    0.7064    0.0000 C   0  0  0  0  0  0  0  0  0  0  0  0
    6.0637   -2.7032    0.0000 C   0  0  2  0  0  0  0  0  0  0  0  0
    7.0046    2.8035    0.0000 C   0  0  0  0  0  0  0  0  0  0  0  0
    3.4131   -0.9154    0.0000 C   0  0  0  0  0  0  0  0  0  0  0  0
    3.4938    0.1231    0.0000 C   0  0  0  0  0  0  0  0  0  0  0  0
    7.9058   -0.9542    0.0000 C   0  0  0  0  0  0  0  0  0  0  0  0
    9.5139    0.3481    0.0000 C   0  0  0  0  0  0  0  0  0  0  0  0
    3.2922   -3.0145    0.0000 C   0  0  0  0  0  0  0  0  0  0  0  0
    6.8991   -3.2528    0.0000 C   0  0  0  0  0  0  0  0  0  0  0  0
    7.9706    3.0623    0.0000 C   0  0  0  0  0  0  0  0  0  0  0  0
    6.2975    3.5106    0.0000 C   0  0  0  0  0  0  0  0  0  0  0  0
    8.8753   -1.3349    0.0000 C   0  0  0  0  0  0  0  0  0  0  0  0
    9.6848   -0.6794    0.0000 C   0  0  0  0  0  0  0  0  0  0  0  0
   10.2837    0.9864    0.0000 C   0  0  0  0  0  0  0  0  0  0  0  0
    8.2294    4.0283    0.0000 C   0  0  0  0  0  0  0  0  0  0  0  0
    6.8409   -4.2511    0.0000 C   0  0  0  0  0  0  0  0  0  0  0  0
    6.5564    4.4766    0.0000 C   0  0  0  0  0  0  0  0  0  0  0  0
    7.7928   -2.8041    0.0000 C   0  0  0  0  0  0  0  0  0  0  0  0
    7.5223    4.7354    0.0000 C   0  0  0  0  0  0  0  0  0  0  0  0
    7.6763   -4.8007    0.0000 C   0  0  0  0  0  0  0  0  0  0  0  0
    8.6282   -3.3536    0.0000 C   0  0  0  0  0  0  0  0  0  0  0  0
    8.5700   -4.3519    0.0000 C   0  0  0  0  0  0  0  0  0  0  0  0
    6.9893    1.2351    0.0000 H   0  0  0  0  0  0  0  0  0  0  0  0
    6.5266    3.1618    0.0000 H   0  0  0  0  0  0  0  0  0  0  0  0
    3.6807   -2.2300    0.0000 H   0  0  0  0  0  0  0  0  0  0  0  0
    5.6082   -3.5301    0.0000 H   0  0  0  0  0  0  0  0  0  0  0  0
    6.6172   -2.4239    0.0000 H   0  0  0  0  0  0  0  0  0  0  0  0
    2.9838    0.4757    0.0000 H   0  0  0  0  0  0  0  0  0  0  0  0
    4.8892    3.6862    0.0000 H   0  0  0  0  0  0  0  0  0  0  0  0
    3.0226   -2.4562    0.0000 H   0  0  0  0  0  0  0  0  0  0  0  0
    2.7339   -3.2842    0.0000 H   0  0  0  0  0  0  0  0  0  0  0  0
    3.5618   -3.5728    0.0000 H   0  0  0  0  0  0  0  0  0  0  0  0
    8.4090    2.6239    0.0000 H   0  0  0  0  0  0  0  0  0  0  0  0
    5.6987    3.3502    0.0000 H   0  0  0  0  0  0  0  0  0  0  0  0
    8.9699   -1.9477    0.0000 H   0  0  0  0  0  0  0  0  0  0  0  0
    4.4700   -4.4581    0.0000 H   0  0  0  0  0  0  0  0  0  0  0  0
   10.6795    0.5091    0.0000 H   0  0  0  0  0  0  0  0  0  0  0  0
   10.7610    1.3821    0.0000 H   0  0  0  0  0  0  0  0  0  0  0  0
    9.8880    1.4636    0.0000 H   0  0  0  0  0  0  0  0  0  0  0  0
    2.0000   -1.0017    0.0000 H   0  0  0  0  0  0  0  0  0  0  0  0
    6.2868   -4.5293    0.0000 H   0  0  0  0  0  0  0  0  0  0  0  0
    6.1180    4.9150    0.0000 H   0  0  0  0  0  0  0  0  0  0  0  0
    7.8289   -2.1851    0.0000 H   0  0  0  0  0  0  0  0  0  0  0  0
    7.2113   -2.1879    0.0000 H   0  0  0  0  0  0  0  0  0  0  0  0
   11.1001   -0.6422    0.0000 H   0  0  0  0  0  0  0  0  0  0  0  0
    9.1823   -3.0754    0.0000 H   0  0  0  0  0  0  0  0  0  0  0  0
    9.3558    4.8860    0.0000 H   0  0  0  0  0  0  0  0  0  0  0  0
    7.3427    6.1397    0.0000 H   0  0  0  0  0  0  0  0  0  0  0  0
    8.1361   -6.1397    0.0000 H   0  0  0  0  0  0  0  0  0  0  0  0
    9.9595   -4.6233    0.0000 H   0  0  0  0  0  0  0  0  0  0  0  0
  1 15  1  0  0  0  0
  1 19  1  0  0  0  0
  2 15  1  0  0  0  0
  2 23  1  0  0  0  0
  3 18  1  0  0  0  0
  3 24  1  0  0  0  0
 14  4  1  1  0  0  0
  4 51  1  0  0  0  0
 22  5  1  1  0  0  0
  5 58  1  0  0  0  0
  6 26  1  0  0  0  0
  6 62  1  0  0  0  0
  7 28  1  0  0  0  0
  7 66  1  0  0  0  0
  8 35  1  0  0  0  0
  8 67  1  0  0  0  0
  9 37  1  0  0  0  0
  9 69  1  0  0  0  0
 10 41  1  0  0  0  0
 10 70  1  0  0  0  0
 11 42  1  0  0  0  0
 11 71  1  0  0  0  0
 12 44  1  0  0  0  0
 12 72  1  0  0  0  0
 13 14  1  0  0  0  0
 13 16  1  0  0  0  0
 13 17  1  0  0  0  0
 13 45  1  0  0  0  0
 14 15  1  0  0  0  0
 14 46  1  0  0  0  0
 15 25  1  6  0  0  0
 16 18  1  0  0  0  0
 16 19  2  0  0  0  0
 17 23  1  0  0  0  0
 17 28  2  0  0  0  0
 18 21  2  0  0  0  0
 19 27  1  0  0  0  0
 20 21  1  0  0  0  0
 20 22  1  0  0  0  0
 20 30  1  6  0  0  0
 20 47  1  0  0  0  0
 21 26  1  0  0  0  0
 22 24  1  0  0  0  0
 22 48  1  0  0  0  0
 23 29  2  0  0  0  0
 24 31  1  1  0  0  0
 24 49  1  0  0  0  0
 25 32  2  0  0  0  0
 25 33  1  0  0  0  0
 26 27  2  0  0  0  0
 27 50  1  0  0  0  0
 28 34  1  0  0  0  0
 29 35  1  0  0  0  0
 29 36  1  0  0  0  0
 30 52  1  0  0  0  0
 30 53  1  0  0  0  0
 30 54  1  0  0  0  0
 31 38  2  0  0  0  0
 31 40  1  0  0  0  0
 32 37  1  0  0  0  0
 32 55  1  0  0  0  0
 33 39  2  0  0  0  0
 33 56  1  0  0  0  0
 34 35  2  0  0  0  0
 34 57  1  0  0  0  0
 36 59  1  0  0  0  0
 36 60  1  0  0  0  0
 36 61  1  0  0  0  0
 37 41  2  0  0  0  0
 38 42  1  0  0  0  0
 38 63  1  0  0  0  0
 39 41  1  0  0  0  0
 39 64  1  0  0  0  0
 40 43  2  0  0  0  0
 40 65  1  0  0  0  0
 42 44  2  0  0  0  0
 43 44  1  0  0  0  0
 43 68  1  0  0  0  0
M  END
> <PUBCHEM_COMPOUND_CID>
71127239

> <PUBCHEM_COMPOUND_CANONICALIZED>
1

> <PUBCHEM_CACTVS_COMPLEXITY>
1050

> <PUBCHEM_CACTVS_HBOND_ACCEPTOR>
12

> <PUBCHEM_CACTVS_HBOND_DONOR>
9

> <PUBCHEM_CACTVS_ROTATABLE_BOND>
2

> <PUBCHEM_CACTVS_SUBSKEYS>
AAADceB8PAAAAAAAAAAAAAAAAAAAAAAAAAA0aNGCAAASAACRVAAAGgAACAAADRSgmAIyDoAABgCAAiBCAAACCAAgIAAIiAAGiIgdNyKGMRqieCGlwBUPuAfA4PwOoAADCAAIQABAAAYQABCAAAAAAAAAAA==

> <PUBCHEM_IUPAC_OPENEYE_NAME>
(5S,6S,7R,13R,21R)-5,13-bis(3,4-dihydroxyphenyl)-7,16-dimethyl-4,12,14-trioxapentacyclo[11.7.1.02,11.03,8.015,20]henicosa-2(11),3(8),9,15,17,19-hexaene-6,9,17,19,21-pentol

> <PUBCHEM_IUPAC_CAS_NAME>
(5S,6S,7R,13R,21R)-5,13-bis(3,4-dihydroxyphenyl)-7,16-dimethyl-4,12,14-trioxapentacyclo[11.7.1.02,11.03,8.015,20]heneicosa-2(11),3(8),9,15,17,19-hexaene-6,9,17,19,21-pentol

> <PUBCHEM_IUPAC_NAME_MARKUP>
(5<I>S</I>,6<I>S</I>,7<I>R</I>,13<I>R</I>,21<I>R</I>)-5,13-bis(3,4-dihydroxyphenyl)-7,16-dimethyl-4,12,14-trioxapentacyclo[11.7.1.0<SUP>2,11</SUP>.0<SUP>3,8</SUP>.0<SUP>15,20</SUP>]henicosa-2(11),3(8),9,15,17,19-hexaene-6,9,17,19,21-pentol

> <PUBCHEM_IUPAC_NAME>
(5S,6S,7R,13R,21R)-5,13-bis(3,4-dihydroxyphenyl)-7,16-dimethyl-4,12,14-trioxapentacyclo[11.7.1.02,11.03,8.015,20]henicosa-2(11),3(8),9,15,17,19-hexaene-6,9,17,19,21-pentol

> <PUBCHEM_IUPAC_SYSTEMATIC_NAME>
(5S,6S,7R,13R,21R)-5,13-bis[3,4-bis(oxidanyl)phenyl]-7,16-dimethyl-4,12,14-trioxapentacyclo[11.7.1.02,11.03,8.015,20]henicosa-2(11),3(8),9,15,17,19-hexaene-6,9,17,19,21-pentol

> <PUBCHEM_IUPAC_TRADITIONAL_NAME>
(5S,6S,7R,13R,21R)-5,13-bis(3,4-dihydroxyphenyl)-7,16-dimethyl-4,12,14-trioxapentacyclo[11.7.1.02,11.03,8.015,20]heneicosa-2(11),3(8),9,15,17,19-hexaene-6,9,17,19,21-pentol

> <PUBCHEM_IUPAC_INCHI>
InChI=1S/C32H28O12/c1-11-17(35)9-20(38)24-26-25-22(43-32(31(26)41,44-28(11)24)14-4-6-16(34)19(37)8-14)10-21(39)23-12(2)27(40)29(42-30(23)25)13-3-5-15(33)18(36)7-13/h3-10,12,26-27,29,31,33-41H,1-2H3/t12-,26?,27+,29+,31-,32-/m1/s1

> <PUBCHEM_IUPAC_INCHIKEY>
YJYZMRBXXIKJFT-XAIPUXATSA-N

> <PUBCHEM_XLOGP3_AA>
3.1

> <PUBCHEM_EXACT_MASS>
604.15807632

> <PUBCHEM_MOLECULAR_FORMULA>
C32H28O12

> <PUBCHEM_MOLECULAR_WEIGHT>
604.6

> <PUBCHEM_OPENEYE_CAN_SMILES>
CC1C(C(OC2=C1C(=CC3=C2C4C(C(O3)(OC5=C(C(=CC(=C45)O)O)C)C6=CC(=C(C=C6)O)O)O)O)C7=CC(=C(C=C7)O)O)O

> <PUBCHEM_OPENEYE_ISO_SMILES>
C[C@H]1[C@@H]([C@@H](OC2=C1C(=CC3=C2C4[C@H]([C@](O3)(OC5=C(C(=CC(=C45)O)O)C)C6=CC(=C(C=C6)O)O)O)O)C7=CC(=C(C=C7)O)O)O

> <PUBCHEM_CACTVS_TPSA>
210

> <PUBCHEM_MONOISOTOPIC_WEIGHT>
604.15807632

> <PUBCHEM_TOTAL_CHARGE>
0

> <PUBCHEM_HEAVY_ATOM_COUNT>
44

> <PUBCHEM_ATOM_DEF_STEREO_COUNT>
5

> <PUBCHEM_ATOM_UDEF_STEREO_COUNT>
1

> <PUBCHEM_BOND_DEF_STEREO_COUNT>
0

> <PUBCHEM_BOND_UDEF_STEREO_COUNT>
0

> <PUBCHEM_ISOTOPIC_ATOM_COUNT>
0

> <PUBCHEM_COMPONENT_COUNT>
1

> <PUBCHEM_CACTVS_TAUTO_COUNT>
-1

> <PUBCHEM_COORDINATE_TYPE>
1
5
255

> <PUBCHEM_BONDANNOTATIONS>
13  17  3
15  25  6
16  18  8
16  19  8
17  23  8
17  28  8
18  21  8
19  27  8
20  30  6
21  26  8
23  29  8
24  31  5
25  32  8
25  33  8
26  27  8
28  34  8
29  35  8
31  38  8
31  40  8
32  37  8
33  39  8
34  35  8
37  41  8
38  42  8
39  41  8
14  4  5
40  43  8
42  44  8
43  44  8
22  5  5

$$$$
