 
  -OEChem-10192103342D

 82 86  0     1  0  0  0  0  0999 V2000
    2.5357   -2.1682    0.0000 O   0  0  0  0  0  0  0  0  0  0  0  0
    4.3500   -3.9461    0.0000 O   0  0  0  0  0  0  0  0  0  0  0  0
   11.4608    0.9183    0.0000 O   0  0  0  0  0  0  0  0  0  0  0  0
    2.8467   -3.0858    0.0000 O   0  0  0  0  0  0  0  0  0  0  0  0
   10.6064   -0.5883    0.0000 O   0  0  0  0  0  0  0  0  0  0  0  0
   11.2187    3.9437    0.0000 O   0  0  0  0  0  0  0  0  0  0  0  0
    7.0628   -0.6159    0.0000 C   0  0  2  0  0  0  0  0  0  0  0  0
    6.1968   -0.1159    0.0000 C   0  0  3  0  0  0  0  0  0  0  0  0
    5.2868   -0.6227    0.0000 C   0  0  2  0  0  0  0  0  0  0  0  0
    7.9288   -0.1159    0.0000 C   0  0  1  0  0  0  0  0  0  0  0  0
    5.2787   -1.6643    0.0000 C   0  0  3  0  0  0  0  0  0  0  0  0
    7.0789   -1.6574    0.0000 C   0  0  0  0  0  0  0  0  0  0  0  0
    7.9288    0.8841    0.0000 C   0  0  0  0  0  0  0  0  0  0  0  0
    6.1808   -2.1851    0.0000 C   0  0  0  0  0  0  0  0  0  0  0  0
    8.8228    1.4188    0.0000 C   0  0  3  0  0  0  0  0  0  0  0  0
    6.1968    0.8841    0.0000 C   0  0  0  0  0  0  0  0  0  0  0  0
    4.3433   -2.2140    0.0000 C   0  0  2  0  0  0  0  0  0  0  0  0
    8.8228   -0.6505    0.0000 C   0  0  0  0  0  0  0  0  0  0  0  0
    9.7288    0.9049    0.0000 C   0  0  1  0  0  0  0  0  0  0  0  0
    4.3599   -0.0586    0.0000 C   0  0  0  0  0  0  0  0  0  0  0  0
    9.7288   -0.1367    0.0000 C   0  0  0  0  0  0  0  0  0  0  0  0
    7.7056   -1.3819    0.0000 C   0  0  0  0  0  0  0  0  0  0  0  0
    7.0628    1.3841    0.0000 C   0  0  0  0  0  0  0  0  0  0  0  0
    5.2945    0.3773    0.0000 C   0  0  0  0  0  0  0  0  0  0  0  0
    3.4037   -1.6716    0.0000 C   0  0  2  0  0  0  0  0  0  0  0  0
    8.2709   -1.0555    0.0000 C   0  0  0  0  0  0  0  0  0  0  0  0
    3.4120   -0.5866    0.0000 C   0  0  0  0  0  0  0  0  0  0  0  0
    8.7977    2.5035    0.0000 C   0  0  0  0  0  0  0  0  0  0  0  0
   10.6726    1.4402    0.0000 C   0  0  0  0  0  0  0  0  0  0  0  0
    9.7288    3.0604    0.0000 C   0  0  1  0  0  0  0  0  0  0  0  0
   10.6726    2.5252    0.0000 C   0  0  0  0  0  0  0  0  0  0  0  0
    4.8466   -3.0781    0.0000 C   0  0  0  0  0  0  0  0  0  0  0  0
    3.8467   -3.0820    0.0000 C   0  0  0  0  0  0  0  0  0  0  0  0
   10.5987    0.4116    0.0000 C   0  0  0  0  0  0  0  0  0  0  0  0
   10.2188    3.9322    0.0000 C   0  0  0  0  0  0  0  0  0  0  0  0
    9.2188    3.9206    0.0000 C   0  0  0  0  0  0  0  0  0  0  0  0
    6.7337    0.1941    0.0000 H   0  0  0  0  0  0  0  0  0  0  0  0
    5.2811   -2.2843    0.0000 H   0  0  0  0  0  0  0  0  0  0  0  0
    7.2969   -2.2378    0.0000 H   0  0  0  0  0  0  0  0  0  0  0  0
    7.6880   -1.5419    0.0000 H   0  0  0  0  0  0  0  0  0  0  0  0
    5.7835   -2.6611    0.0000 H   0  0  0  0  0  0  0  0  0  0  0  0
    6.5818   -2.6580    0.0000 H   0  0  0  0  0  0  0  0  0  0  0  0
    9.3549    1.7370    0.0000 H   0  0  0  0  0  0  0  0  0  0  0  0
    5.9847    1.4667    0.0000 H   0  0  0  0  0  0  0  0  0  0  0  0
    5.5862    0.7765    0.0000 H   0  0  0  0  0  0  0  0  0  0  0  0
    8.4182   -1.1203    0.0000 H   0  0  0  0  0  0  0  0  0  0  0  0
    9.2164   -1.1296    0.0000 H   0  0  0  0  0  0  0  0  0  0  0  0
    4.7681    0.4080    0.0000 H   0  0  0  0  0  0  0  0  0  0  0  0
    3.9700    0.4234    0.0000 H   0  0  0  0  0  0  0  0  0  0  0  0
    9.9379   -0.7204    0.0000 H   0  0  0  0  0  0  0  0  0  0  0  0
   10.3397   -0.0306    0.0000 H   0  0  0  0  0  0  0  0  0  0  0  0
    7.2306   -1.7804    0.0000 H   0  0  0  0  0  0  0  0  0  0  0  0
    8.1041   -1.8569    0.0000 H   0  0  0  0  0  0  0  0  0  0  0  0
    8.1805   -0.9834    0.0000 H   0  0  0  0  0  0  0  0  0  0  0  0
    7.0628    2.0041    0.0000 H   0  0  0  0  0  0  0  0  0  0  0  0
    5.9145    0.3725    0.0000 H   0  0  0  0  0  0  0  0  0  0  0  0
    5.2993    0.9972    0.0000 H   0  0  0  0  0  0  0  0  0  0  0  0
    4.6745    0.3820    0.0000 H   0  0  0  0  0  0  0  0  0  0  0  0
    2.8686   -1.3584    0.0000 H   0  0  0  0  0  0  0  0  0  0  0  0
    7.6884   -1.2676    0.0000 H   0  0  0  0  0  0  0  0  0  0  0  0
    8.4830   -1.6381    0.0000 H   0  0  0  0  0  0  0  0  0  0  0  0
    8.8535   -0.8434    0.0000 H   0  0  0  0  0  0  0  0  0  0  0  0
    3.2075   -0.0013    0.0000 H   0  0  0  0  0  0  0  0  0  0  0  0
    2.8004   -0.6880    0.0000 H   0  0  0  0  0  0  0  0  0  0  0  0
    8.5752    3.0822    0.0000 H   0  0  0  0  0  0  0  0  0  0  0  0
    8.1894    2.3833    0.0000 H   0  0  0  0  0  0  0  0  0  0  0  0
   10.8817    0.8565    0.0000 H   0  0  0  0  0  0  0  0  0  0  0  0
   11.2835    1.5463    0.0000 H   0  0  0  0  0  0  0  0  0  0  0  0
   11.2835    2.4191    0.0000 H   0  0  0  0  0  0  0  0  0  0  0  0
   10.8817    3.1089    0.0000 H   0  0  0  0  0  0  0  0  0  0  0  0
    4.3109   -3.3902    0.0000 H   0  0  0  0  0  0  0  0  0  0  0  0
    5.1587   -3.6139    0.0000 H   0  0  0  0  0  0  0  0  0  0  0  0
    5.3824   -2.7661    0.0000 H   0  0  0  0  0  0  0  0  0  0  0  0
   10.3194    4.5440    0.0000 H   0  0  0  0  0  0  0  0  0  0  0  0
    9.6338    4.1375    0.0000 H   0  0  0  0  0  0  0  0  0  0  0  0
    9.7522    4.2368    0.0000 H   0  0  0  0  0  0  0  0  0  0  0  0
    8.9027    4.4539    0.0000 H   0  0  0  0  0  0  0  0  0  0  0  0
    8.6855    3.6044    0.0000 H   0  0  0  0  0  0  0  0  0  0  0  0
    2.0000   -1.8561    0.0000 H   0  0  0  0  0  0  0  0  0  0  0  0
    4.0421   -4.4842    0.0000 H   0  0  0  0  0  0  0  0  0  0  0  0
   12.0001    0.6124    0.0000 H   0  0  0  0  0  0  0  0  0  0  0  0
   11.5225    4.4842    0.0000 H   0  0  0  0  0  0  0  0  0  0  0  0
 25  1  1  1  0  0  0
  1 79  1  0  0  0  0
  2 33  1  0  0  0  0
  2 80  1  0  0  0  0
  3 34  1  0  0  0  0
  3 81  1  0  0  0  0
  4 33  2  0  0  0  0
  5 34  2  0  0  0  0
  6 35  1  0  0  0  0
  6 82  1  0  0  0  0
  7  8  1  0  0  0  0
  7 10  1  0  0  0  0
  7 12  1  0  0  0  0
  7 22  1  1  0  0  0
  8  9  1  0  0  0  0
  8 16  1  0  0  0  0
  8 37  1  0  0  0  0
  9 11  1  0  0  0  0
  9 20  1  0  0  0  0
  9 24  1  1  0  0  0
 10 13  1  0  0  0  0
 10 18  1  0  0  0  0
 10 26  1  6  0  0  0
 11 14  1  0  0  0  0
 11 17  1  0  0  0  0
 11 38  1  0  0  0  0
 12 14  1  0  0  0  0
 12 39  1  0  0  0  0
 12 40  1  0  0  0  0
 13 15  1  0  0  0  0
 13 23  2  0  0  0  0
 14 41  1  0  0  0  0
 14 42  1  0  0  0  0
 15 19  1  0  0  0  0
 15 28  1  0  0  0  0
 15 43  1  0  0  0  0
 16 23  1  0  0  0  0
 16 44  1  0  0  0  0
 16 45  1  0  0  0  0
 17 25  1  0  0  0  0
 17 32  1  1  0  0  0
 17 33  1  0  0  0  0
 18 21  1  0  0  0  0
 18 46  1  0  0  0  0
 18 47  1  0  0  0  0
 19 21  1  0  0  0  0
 19 29  1  0  0  0  0
 19 34  1  1  0  0  0
 20 27  1  0  0  0  0
 20 48  1  0  0  0  0
 20 49  1  0  0  0  0
 21 50  1  0  0  0  0
 21 51  1  0  0  0  0
 22 52  1  0  0  0  0
 22 53  1  0  0  0  0
 22 54  1  0  0  0  0
 23 55  1  0  0  0  0
 24 56  1  0  0  0  0
 24 57  1  0  0  0  0
 24 58  1  0  0  0  0
 25 27  1  0  0  0  0
 25 59  1  0  0  0  0
 26 60  1  0  0  0  0
 26 61  1  0  0  0  0
 26 62  1  0  0  0  0
 27 63  1  0  0  0  0
 27 64  1  0  0  0  0
 28 30  1  0  0  0  0
 28 65  1  0  0  0  0
 28 66  1  0  0  0  0
 29 31  1  0  0  0  0
 29 67  1  0  0  0  0
 29 68  1  0  0  0  0
 30 31  1  0  0  0  0
 30 35  1  0  0  0  0
 30 36  1  1  0  0  0
 31 69  1  0  0  0  0
 31 70  1  0  0  0  0
 32 71  1  0  0  0  0
 32 72  1  0  0  0  0
 32 73  1  0  0  0  0
 35 74  1  0  0  0  0
 35 75  1  0  0  0  0
 36 76  1  0  0  0  0
 36 77  1  0  0  0  0
 36 78  1  0  0  0  0
M  END
> <PUBCHEM_COMPOUND_CID>
10029041

> <PUBCHEM_COMPOUND_CANONICALIZED>
1

> <PUBCHEM_CACTVS_COMPLEXITY>
1010

> <PUBCHEM_CACTVS_HBOND_ACCEPTOR>
6

> <PUBCHEM_CACTVS_HBOND_DONOR>
4

> <PUBCHEM_CACTVS_ROTATABLE_BOND>
3

> <PUBCHEM_CACTVS_SUBSKEYS>
AAADcfB4OAAAAAAAAAAAAAAAAAAAAAAAAAAwYMGCAAAAAADAAAAAGgAACAAADxSggAICCAAAAgCIAiDSCAAAAAAgAAAACAEAAAgAEBYAAQAAQAAFoAAIAAOIyPCPgAAAAAAAAADAAAYAADAAAAAAAAAAAA==

> <PUBCHEM_IUPAC_OPENEYE_NAME>
(3S,4S,6aR,6bS,8aR,11R,14bR)-3-hydroxy-11-(hydroxymethyl)-4,6a,6b,11,14b-pentamethyl-1,2,3,4a,5,6,7,8,9,10,12,12a,14,14a-tetradecahydropicene-4,8a-dicarboxylic acid

> <PUBCHEM_IUPAC_CAS_NAME>
(3S,4S,6aR,6bS,8aR,11R,14bR)-3-hydroxy-11-(hydroxymethyl)-4,6a,6b,11,14b-pentamethyl-1,2,3,4a,5,6,7,8,9,10,12,12a,14,14a-tetradecahydropicene-4,8a-dicarboxylic acid

> <PUBCHEM_IUPAC_NAME_MARKUP>
(3<I>S</I>,4<I>S</I>,6<I>a</I><I>R</I>,6<I>b</I><I>S</I>,8<I>a</I><I>R</I>,11<I>R</I>,14<I>b</I><I>R</I>)-3-hydroxy-11-(hydroxymethyl)-4,6<I>a</I>,6<I>b</I>,11,14<I>b</I>-pentamethyl-1,2,3,4<I>a</I>,5,6,7,8,9,10,12,12<I>a</I>,14,14<I>a</I>-tetradecahydropicene-4,8<I>a</I>-dicarboxylic acid

> <PUBCHEM_IUPAC_NAME>
(3S,4S,6aR,6bS,8aR,11R,14bR)-3-hydroxy-11-(hydroxymethyl)-4,6a,6b,11,14b-pentamethyl-1,2,3,4a,5,6,7,8,9,10,12,12a,14,14a-tetradecahydropicene-4,8a-dicarboxylic acid

> <PUBCHEM_IUPAC_SYSTEMATIC_NAME>
(3S,4S,6aR,6bS,8aR,11R,14bR)-11-(hydroxymethyl)-4,6a,6b,11,14b-pentamethyl-3-oxidanyl-1,2,3,4a,5,6,7,8,9,10,12,12a,14,14a-tetradecahydropicene-4,8a-dicarboxylic acid

> <PUBCHEM_IUPAC_TRADITIONAL_NAME>
(3S,4S,6aR,6bS,8aR,11R,14bR)-3-hydroxy-4,6a,6b,11,14b-pentamethyl-11-methylol-1,2,3,4a,5,6,7,8,9,10,12,12a,14,14a-tetradecahydropicene-4,8a-dicarboxylic acid

> <PUBCHEM_IUPAC_INCHI>
InChI=1S/C30H46O6/c1-25(17-31)12-14-30(24(35)36)15-13-27(3)18(19(30)16-25)6-7-20-26(2)10-9-22(32)29(5,23(33)34)21(26)8-11-28(20,27)4/h6,19-22,31-32H,7-17H2,1-5H3,(H,33,34)(H,35,36)/t19?,20?,21?,22-,25+,26+,27+,28+,29-,30-/m0/s1

> <PUBCHEM_IUPAC_INCHIKEY>
DONPTFNDUAGNOP-NTQDKSEJSA-N

> <PUBCHEM_XLOGP3_AA>
5.2

> <PUBCHEM_EXACT_MASS>
502.32943918

> <PUBCHEM_MOLECULAR_FORMULA>
C30H46O6

> <PUBCHEM_MOLECULAR_WEIGHT>
502.7

> <PUBCHEM_OPENEYE_CAN_SMILES>
CC1(CCC2(CCC3(C(=CCC4C3(CCC5C4(CCC(C5(C)C(=O)O)O)C)C)C2C1)C)C(=O)O)CO

> <PUBCHEM_OPENEYE_ISO_SMILES>
C[C@]1(CC[C@@]2(CC[C@@]3(C(=CCC4[C@]3(CCC5[C@@]4(CC[C@@H]([C@@]5(C)C(=O)O)O)C)C)C2C1)C)C(=O)O)CO

> <PUBCHEM_CACTVS_TPSA>
115

> <PUBCHEM_MONOISOTOPIC_WEIGHT>
502.32943918

> <PUBCHEM_TOTAL_CHARGE>
0

> <PUBCHEM_HEAVY_ATOM_COUNT>
36

> <PUBCHEM_ATOM_DEF_STEREO_COUNT>
7

> <PUBCHEM_ATOM_UDEF_STEREO_COUNT>
3

> <PUBCHEM_BOND_DEF_STEREO_COUNT>
0

> <PUBCHEM_BOND_UDEF_STEREO_COUNT>
0

> <PUBCHEM_ISOTOPIC_ATOM_COUNT>
0

> <PUBCHEM_COMPONENT_COUNT>
1

> <PUBCHEM_CACTVS_TAUTO_COUNT>
-1

> <PUBCHEM_COORDINATE_TYPE>
1
5
255

> <PUBCHEM_BONDANNOTATIONS>
25  1  5
10  26  6
11  14  3
15  28  3
17  32  5
19  34  5
30  36  5
7  22  5
8  16  3
9  24  5

$$$$
