 
  -OEChem-10192104222D

 56 58  0     1  0  0  0  0  0999 V2000
   13.0013   -3.3717    0.0000 P   0  0  0  0  0  0  0  0  0  0  0  0
   11.1402   -0.9071    0.0000 O   0  0  0  0  0  0  0  0  0  0  0  0
    9.2434   -2.6672    0.0000 O   0  0  0  0  0  0  0  0  0  0  0  0
    8.5711   -0.5981    0.0000 O   0  0  0  0  0  0  0  0  0  0  0  0
   12.4135   -2.5626    0.0000 O   0  0  0  0  0  0  0  0  0  0  0  0
   12.0632    0.6807    0.0000 O   0  0  0  0  0  0  0  0  0  0  0  0
   13.5890   -4.1807    0.0000 O   0  0  0  0  0  0  0  0  0  0  0  0
   13.8103   -2.7839    0.0000 O   0  0  0  0  0  0  0  0  0  0  0  0
   12.1922   -3.9594    0.0000 O   0  0  0  0  0  0  0  0  0  0  0  0
    7.7331    1.1807    0.0000 O   0  0  0  0  0  0  0  0  0  0  0  0
    2.5369    4.1807    0.0000 O   0  0  0  0  0  0  0  0  0  0  0  0
   10.3312    0.6807    0.0000 N   0  0  0  0  0  0  0  0  0  0  0  0
   11.1972    2.1807    0.0000 N   0  0  0  0  0  0  0  0  0  0  0  0
    8.5991    2.6807    0.0000 N   0  0  0  0  0  0  0  0  0  0  0  0
   10.3312    3.6807    0.0000 N   0  0  0  0  0  0  0  0  0  0  0  0
    9.8312   -1.8582    0.0000 C   0  0  3  0  0  0  0  0  0  0  0  0
    9.5222   -0.9071    0.0000 C   0  0  3  0  0  0  0  0  0  0  0  0
   10.8312   -1.8582    0.0000 C   0  0  1  0  0  0  0  0  0  0  0  0
   10.3312   -0.3193    0.0000 C   0  0  1  0  0  0  0  0  0  0  0  0
   11.4190   -2.6672    0.0000 C   0  0  0  0  0  0  0  0  0  0  0  0
    9.4651    1.1807    0.0000 C   0  0  0  0  0  0  0  0  0  0  0  0
   11.1972    1.1807    0.0000 C   0  0  0  0  0  0  0  0  0  0  0  0
    9.4651    2.1807    0.0000 C   0  0  0  0  0  0  0  0  0  0  0  0
   10.3312    2.6807    0.0000 C   0  0  0  0  0  0  0  0  0  0  0  0
    7.7331    2.1807    0.0000 C   0  0  0  0  0  0  0  0  0  0  0  0
    6.8671    2.6807    0.0000 C   0  0  0  0  0  0  0  0  0  0  0  0
    6.0010    2.1807    0.0000 C   0  0  0  0  0  0  0  0  0  0  0  0
    5.1350    2.6807    0.0000 C   0  0  0  0  0  0  0  0  0  0  0  0
    5.1350    3.6807    0.0000 C   0  0  0  0  0  0  0  0  0  0  0  0
    4.2690    2.1807    0.0000 C   0  0  0  0  0  0  0  0  0  0  0  0
    4.2690    4.1807    0.0000 C   0  0  0  0  0  0  0  0  0  0  0  0
    3.4030    2.6807    0.0000 C   0  0  0  0  0  0  0  0  0  0  0  0
    3.4030    3.6807    0.0000 C   0  0  0  0  0  0  0  0  0  0  0  0
    9.2188   -1.7612    0.0000 H   0  0  0  0  0  0  0  0  0  0  0  0
    9.0837   -1.3455    0.0000 H   0  0  0  0  0  0  0  0  0  0  0  0
   11.4435   -1.7612    0.0000 H   0  0  0  0  0  0  0  0  0  0  0  0
   10.8836   -0.0378    0.0000 H   0  0  0  0  0  0  0  0  0  0  0  0
   10.8617   -2.9390    0.0000 H   0  0  0  0  0  0  0  0  0  0  0  0
   11.5898   -3.2632    0.0000 H   0  0  0  0  0  0  0  0  0  0  0  0
    9.4956   -3.2336    0.0000 H   0  0  0  0  0  0  0  0  0  0  0  0
    8.1103   -1.0130    0.0000 H   0  0  0  0  0  0  0  0  0  0  0  0
    8.9282    0.8707    0.0000 H   0  0  0  0  0  0  0  0  0  0  0  0
    8.5991    3.3007    0.0000 H   0  0  0  0  0  0  0  0  0  0  0  0
    7.2656    3.1556    0.0000 H   0  0  0  0  0  0  0  0  0  0  0  0
    6.4685    3.1556    0.0000 H   0  0  0  0  0  0  0  0  0  0  0  0
   10.8681    3.9907    0.0000 H   0  0  0  0  0  0  0  0  0  0  0  0
    9.7942    3.9907    0.0000 H   0  0  0  0  0  0  0  0  0  0  0  0
    5.6025    1.7057    0.0000 H   0  0  0  0  0  0  0  0  0  0  0  0
    6.3996    1.7057    0.0000 H   0  0  0  0  0  0  0  0  0  0  0  0
   14.2056   -4.1159    0.0000 H   0  0  0  0  0  0  0  0  0  0  0  0
   13.7455   -2.1673    0.0000 H   0  0  0  0  0  0  0  0  0  0  0  0
    5.6720    3.9907    0.0000 H   0  0  0  0  0  0  0  0  0  0  0  0
    4.2690    1.5607    0.0000 H   0  0  0  0  0  0  0  0  0  0  0  0
    4.2690    4.8007    0.0000 H   0  0  0  0  0  0  0  0  0  0  0  0
    2.8660    2.3707    0.0000 H   0  0  0  0  0  0  0  0  0  0  0  0
    2.0000    3.8707    0.0000 H   0  0  0  0  0  0  0  0  0  0  0  0
  1  5  1  0  0  0  0
  1  7  1  0  0  0  0
  1  8  1  0  0  0  0
  1  9  2  0  0  0  0
  2 18  1  0  0  0  0
  2 19  1  0  0  0  0
  3 16  1  0  0  0  0
  3 40  1  0  0  0  0
  4 17  1  0  0  0  0
  4 41  1  0  0  0  0
  5 20  1  0  0  0  0
  6 22  2  0  0  0  0
  7 50  1  0  0  0  0
  8 51  1  0  0  0  0
 10 25  2  0  0  0  0
 11 33  1  0  0  0  0
 11 56  1  0  0  0  0
 19 12  1  6  0  0  0
 12 21  1  0  0  0  0
 12 22  1  0  0  0  0
 13 22  1  0  0  0  0
 13 24  2  0  0  0  0
 14 23  1  0  0  0  0
 14 25  1  0  0  0  0
 14 43  1  0  0  0  0
 15 24  1  0  0  0  0
 15 46  1  0  0  0  0
 15 47  1  0  0  0  0
 16 17  1  0  0  0  0
 16 18  1  0  0  0  0
 16 34  1  0  0  0  0
 17 19  1  0  0  0  0
 17 35  1  0  0  0  0
 18 20  1  6  0  0  0
 18 36  1  0  0  0  0
 19 37  1  0  0  0  0
 20 38  1  0  0  0  0
 20 39  1  0  0  0  0
 21 23  2  0  0  0  0
 21 42  1  0  0  0  0
 23 24  1  0  0  0  0
 25 26  1  0  0  0  0
 26 27  1  0  0  0  0
 26 44  1  0  0  0  0
 26 45  1  0  0  0  0
 27 28  1  0  0  0  0
 27 48  1  0  0  0  0
 27 49  1  0  0  0  0
 28 29  2  0  0  0  0
 28 30  1  0  0  0  0
 29 31  1  0  0  0  0
 29 52  1  0  0  0  0
 30 32  2  0  0  0  0
 30 53  1  0  0  0  0
 31 33  2  0  0  0  0
 31 54  1  0  0  0  0
 32 33  1  0  0  0  0
 32 55  1  0  0  0  0
M  END
> <PUBCHEM_COMPOUND_CID>
89685558

> <PUBCHEM_COMPOUND_CANONICALIZED>
1

> <PUBCHEM_CACTVS_COMPLEXITY>
853

> <PUBCHEM_CACTVS_HBOND_ACCEPTOR>
10

> <PUBCHEM_CACTVS_HBOND_DONOR>
7

> <PUBCHEM_CACTVS_ROTATABLE_BOND>
8

> <PUBCHEM_CACTVS_SUBSKEYS>
AAADceB7vAIAAAAAAAAAAAAAAAAAASAAAAAwQAAAAAAAAAABAAAAHgAQCCAADBzhmAYxBoPABxCoQid2dICCAAEgIgAIiAEOCJiLdjKCkRKecAAn1hObmAf4+KKOIAAAAAAAAABAAAAAAAAAAAAAAAAAAA==

> <PUBCHEM_IUPAC_OPENEYE_NAME>
[(2R,5R)-5-[4-amino-5-[3-(4-hydroxyphenyl)propanoylamino]-2-oxo-pyrimidin-1-yl]-3,4-dihydroxy-tetrahydrofuran-2-yl]methyl dihydrogen phosphate

> <PUBCHEM_IUPAC_CAS_NAME>
[(2R,5R)-5-[4-amino-5-[[3-(4-hydroxyphenyl)-1-oxopropyl]amino]-2-oxo-1-pyrimidinyl]-3,4-dihydroxy-2-oxolanyl]methyl dihydrogen phosphate

> <PUBCHEM_IUPAC_NAME_MARKUP>
[(2<I>R</I>,5<I>R</I>)-5-[4-amino-5-[3-(4-hydroxyphenyl)propanoylamino]-2-oxopyrimidin-1-yl]-3,4-dihydroxyoxolan-2-yl]methyl dihydrogen phosphate

> <PUBCHEM_IUPAC_NAME>
[(2R,5R)-5-[4-amino-5-[3-(4-hydroxyphenyl)propanoylamino]-2-oxopyrimidin-1-yl]-3,4-dihydroxyoxolan-2-yl]methyl dihydrogen phosphate

> <PUBCHEM_IUPAC_SYSTEMATIC_NAME>
[(2R,5R)-5-[4-azanyl-5-[3-(4-hydroxyphenyl)propanoylamino]-2-oxidanylidene-pyrimidin-1-yl]-3,4-bis(oxidanyl)oxolan-2-yl]methyl dihydrogen phosphate

> <PUBCHEM_IUPAC_TRADITIONAL_NAME>
[(2R,5R)-5-[4-amino-5-[3-(4-hydroxyphenyl)propanoylamino]-2-keto-pyrimidin-1-yl]-3,4-dihydroxy-tetrahydrofuran-2-yl]methyl dihydrogen phosphate

> <PUBCHEM_IUPAC_INCHI>
InChI=1S/C18H23N4O10P/c19-16-11(20-13(24)6-3-9-1-4-10(23)5-2-9)7-22(18(27)21-16)17-15(26)14(25)12(32-17)8-31-33(28,29)30/h1-2,4-5,7,12,14-15,17,23,25-26H,3,6,8H2,(H,20,24)(H2,19,21,27)(H2,28,29,30)/t12-,14?,15?,17-/m1/s1

> <PUBCHEM_IUPAC_INCHIKEY>
JAUWBJAWHSMKJW-IGHZYHEGSA-N

> <PUBCHEM_XLOGP3>
-3.1

> <PUBCHEM_EXACT_MASS>
486.11517994

> <PUBCHEM_MOLECULAR_FORMULA>
C18H23N4O10P

> <PUBCHEM_MOLECULAR_WEIGHT>
486.4

> <PUBCHEM_OPENEYE_CAN_SMILES>
C1=CC(=CC=C1CCC(=O)NC2=CN(C(=O)N=C2N)C3C(C(C(O3)COP(=O)(O)O)O)O)O

> <PUBCHEM_OPENEYE_ISO_SMILES>
C1=CC(=CC=C1CCC(=O)NC2=CN(C(=O)N=C2N)[C@H]3C(C([C@H](O3)COP(=O)(O)O)O)O)O

> <PUBCHEM_CACTVS_TPSA>
225

> <PUBCHEM_MONOISOTOPIC_WEIGHT>
486.11517994

> <PUBCHEM_TOTAL_CHARGE>
0

> <PUBCHEM_HEAVY_ATOM_COUNT>
33

> <PUBCHEM_ATOM_DEF_STEREO_COUNT>
2

> <PUBCHEM_ATOM_UDEF_STEREO_COUNT>
2

> <PUBCHEM_BOND_DEF_STEREO_COUNT>
0

> <PUBCHEM_BOND_UDEF_STEREO_COUNT>
0

> <PUBCHEM_ISOTOPIC_ATOM_COUNT>
0

> <PUBCHEM_COMPONENT_COUNT>
1

> <PUBCHEM_CACTVS_TAUTO_COUNT>
-1

> <PUBCHEM_COORDINATE_TYPE>
1
5
255

> <PUBCHEM_BONDANNOTATIONS>
19  12  6
12  21  8
12  22  8
13  22  8
13  24  8
18  20  6
21  23  8
23  24  8
28  29  8
28  30  8
29  31  8
16  3  3
30  32  8
31  33  8
32  33  8
17  4  3

$$$$
