 
  -OEChem-10192104362D

 56 59  0     0  0  0  0  0  0999 V2000
   10.3312    1.7500    0.0000 O   0  0  0  0  0  0  0  0  0  0  0  0
    6.0010    6.2500    0.0000 O   0  0  0  0  0  0  0  0  0  0  0  0
   12.0632   -4.2500    0.0000 O   0  0  0  0  0  0  0  0  0  0  0  0
    2.5369    4.2500    0.0000 O   0  0  0  0  0  0  0  0  0  0  0  0
    8.5991   -6.2500    0.0000 O   0  0  0  0  0  0  0  0  0  0  0  0
    4.2690    6.2500    0.0000 O   0  0  0  0  0  0  0  0  0  0  0  0
   11.1972   -5.7500    0.0000 O   0  0  0  0  0  0  0  0  0  0  0  0
    3.4030    5.7500    0.0000 O   0  0  0  0  0  0  0  0  0  0  0  0
   10.3312   -6.2500    0.0000 O   0  0  0  0  0  0  0  0  0  0  0  0
    6.8671    2.7500    0.0000 C   0  0  0  0  0  0  0  0  0  0  0  0
    9.4651   -1.7500    0.0000 C   0  0  0  0  0  0  0  0  0  0  0  0
    6.0010    3.2500    0.0000 C   0  0  0  0  0  0  0  0  0  0  0  0
    9.4651   -2.7500    0.0000 C   0  0  0  0  0  0  0  0  0  0  0  0
    8.5991    1.7500    0.0000 C   0  0  0  0  0  0  0  0  0  0  0  0
    9.4651    0.2500    0.0000 C   0  0  0  0  0  0  0  0  0  0  0  0
    9.4651    1.2500    0.0000 C   0  0  0  0  0  0  0  0  0  0  0  0
    6.8671    1.7500    0.0000 C   0  0  0  0  0  0  0  0  0  0  0  0
    8.5991   -1.2500    0.0000 C   0  0  0  0  0  0  0  0  0  0  0  0
    7.7331    3.2500    0.0000 C   0  0  0  0  0  0  0  0  0  0  0  0
   10.3312   -1.2500    0.0000 C   0  0  0  0  0  0  0  0  0  0  0  0
    7.7331    1.2500    0.0000 C   0  0  0  0  0  0  0  0  0  0  0  0
    8.5991   -0.2500    0.0000 C   0  0  0  0  0  0  0  0  0  0  0  0
    8.5991    2.7500    0.0000 C   0  0  0  0  0  0  0  0  0  0  0  0
   10.3312   -0.2500    0.0000 C   0  0  0  0  0  0  0  0  0  0  0  0
    6.0010    4.2500    0.0000 C   0  0  0  0  0  0  0  0  0  0  0  0
   10.3312   -3.2500    0.0000 C   0  0  0  0  0  0  0  0  0  0  0  0
    5.1350    2.7500    0.0000 C   0  0  0  0  0  0  0  0  0  0  0  0
    8.5991   -3.2500    0.0000 C   0  0  0  0  0  0  0  0  0  0  0  0
    5.1350    4.7500    0.0000 C   0  0  0  0  0  0  0  0  0  0  0  0
   10.3312   -4.2500    0.0000 C   0  0  0  0  0  0  0  0  0  0  0  0
    4.2690    4.2500    0.0000 C   0  0  0  0  0  0  0  0  0  0  0  0
    9.4651   -4.7500    0.0000 C   0  0  0  0  0  0  0  0  0  0  0  0
    4.2690    3.2500    0.0000 C   0  0  0  0  0  0  0  0  0  0  0  0
    8.5991   -4.2500    0.0000 C   0  0  0  0  0  0  0  0  0  0  0  0
    5.1350    5.7500    0.0000 C   0  0  0  0  0  0  0  0  0  0  0  0
   11.1972   -4.7500    0.0000 C   0  0  0  0  0  0  0  0  0  0  0  0
    3.4030    4.7500    0.0000 C   0  0  0  0  0  0  0  0  0  0  0  0
    9.4651   -5.7500    0.0000 C   0  0  0  0  0  0  0  0  0  0  0  0
    6.3301    1.4400    0.0000 H   0  0  0  0  0  0  0  0  0  0  0  0
    8.0622   -1.5600    0.0000 H   0  0  0  0  0  0  0  0  0  0  0  0
    7.7331    3.8700    0.0000 H   0  0  0  0  0  0  0  0  0  0  0  0
   10.8681   -1.5600    0.0000 H   0  0  0  0  0  0  0  0  0  0  0  0
    7.7331    0.6300    0.0000 H   0  0  0  0  0  0  0  0  0  0  0  0
    8.0622    0.0600    0.0000 H   0  0  0  0  0  0  0  0  0  0  0  0
    9.1360    3.0600    0.0000 H   0  0  0  0  0  0  0  0  0  0  0  0
   10.8681    0.0600    0.0000 H   0  0  0  0  0  0  0  0  0  0  0  0
    6.5380    4.5600    0.0000 H   0  0  0  0  0  0  0  0  0  0  0  0
   10.8681   -2.9400    0.0000 H   0  0  0  0  0  0  0  0  0  0  0  0
    5.1350    2.1300    0.0000 H   0  0  0  0  0  0  0  0  0  0  0  0
    8.0622   -2.9400    0.0000 H   0  0  0  0  0  0  0  0  0  0  0  0
    3.7320    2.9400    0.0000 H   0  0  0  0  0  0  0  0  0  0  0  0
    8.0622   -4.5600    0.0000 H   0  0  0  0  0  0  0  0  0  0  0  0
    6.0010    6.8700    0.0000 H   0  0  0  0  0  0  0  0  0  0  0  0
   12.6002   -4.5600    0.0000 H   0  0  0  0  0  0  0  0  0  0  0  0
    2.0000    4.5600    0.0000 H   0  0  0  0  0  0  0  0  0  0  0  0
    8.5991   -6.8700    0.0000 H   0  0  0  0  0  0  0  0  0  0  0  0
  1 16  2  0  0  0  0
  2 35  1  0  0  0  0
  2 53  1  0  0  0  0
  3 36  1  0  0  0  0
  3 54  1  0  0  0  0
  4 37  1  0  0  0  0
  4 55  1  0  0  0  0
  5 38  1  0  0  0  0
  5 56  1  0  0  0  0
  6 35  2  0  0  0  0
  7 36  2  0  0  0  0
  8 37  2  0  0  0  0
  9 38  2  0  0  0  0
 10 12  1  0  0  0  0
 10 17  2  0  0  0  0
 10 19  1  0  0  0  0
 11 13  1  0  0  0  0
 11 18  2  0  0  0  0
 11 20  1  0  0  0  0
 12 25  2  0  0  0  0
 12 27  1  0  0  0  0
 13 26  2  0  0  0  0
 13 28  1  0  0  0  0
 14 16  1  0  0  0  0
 14 21  2  0  0  0  0
 14 23  1  0  0  0  0
 15 16  1  0  0  0  0
 15 22  2  0  0  0  0
 15 24  1  0  0  0  0
 17 21  1  0  0  0  0
 17 39  1  0  0  0  0
 18 22  1  0  0  0  0
 18 40  1  0  0  0  0
 19 23  2  0  0  0  0
 19 41  1  0  0  0  0
 20 24  2  0  0  0  0
 20 42  1  0  0  0  0
 21 43  1  0  0  0  0
 22 44  1  0  0  0  0
 23 45  1  0  0  0  0
 24 46  1  0  0  0  0
 25 29  1  0  0  0  0
 25 47  1  0  0  0  0
 26 30  1  0  0  0  0
 26 48  1  0  0  0  0
 27 33  2  0  0  0  0
 27 49  1  0  0  0  0
 28 34  2  0  0  0  0
 28 50  1  0  0  0  0
 29 31  2  0  0  0  0
 29 35  1  0  0  0  0
 30 32  2  0  0  0  0
 30 36  1  0  0  0  0
 31 33  1  0  0  0  0
 31 37  1  0  0  0  0
 32 34  1  0  0  0  0
 32 38  1  0  0  0  0
 33 51  1  0  0  0  0
 34 52  1  0  0  0  0
M  END
> <PUBCHEM_COMPOUND_CID>
19760424

> <PUBCHEM_COMPOUND_CANONICALIZED>
1

> <PUBCHEM_CACTVS_COMPLEXITY>
841

> <PUBCHEM_CACTVS_HBOND_ACCEPTOR>
9

> <PUBCHEM_CACTVS_HBOND_DONOR>
4

> <PUBCHEM_CACTVS_ROTATABLE_BOND>
8

> <PUBCHEM_CACTVS_SUBSKEYS>
AAADceB4PAAAAAAAAAAAAAAAAAAAAAAAAAAwYMGAAAAAAAABVAAAGgAACAAADASAmAAwCIAAAgCIAqDSCAACAAAkAAAIiAEACMgIJjKAFRCAcQAkwAEImYfLyPCOwAACAAAQAACAAAQAACAAAAAAAAAAAA==

> <PUBCHEM_IUPAC_OPENEYE_NAME>
4-[4-[4-(3,4-dicarboxyphenyl)benzoyl]phenyl]phthalic acid

> <PUBCHEM_IUPAC_CAS_NAME>
4-[4-[[4-(3,4-dicarboxyphenyl)phenyl]-oxomethyl]phenyl]phthalic acid

> <PUBCHEM_IUPAC_NAME_MARKUP>
4-[4-[4-(3,4-dicarboxyphenyl)benzoyl]phenyl]phthalic acid

> <PUBCHEM_IUPAC_NAME>
4-[4-[4-(3,4-dicarboxyphenyl)benzoyl]phenyl]phthalic acid

> <PUBCHEM_IUPAC_SYSTEMATIC_NAME>
4-[4-[4-(3,4-dicarboxyphenyl)phenyl]carbonylphenyl]phthalic acid

> <PUBCHEM_IUPAC_TRADITIONAL_NAME>
4-[4-[4-(3,4-dicarboxyphenyl)benzoyl]phenyl]phthalic acid

> <PUBCHEM_IUPAC_INCHI>
InChI=1S/C29H18O9/c30-25(17-5-1-15(2-6-17)19-9-11-21(26(31)32)23(13-19)28(35)36)18-7-3-16(4-8-18)20-10-12-22(27(33)34)24(14-20)29(37)38/h1-14H,(H,31,32)(H,33,34)(H,35,36)(H,37,38)

> <PUBCHEM_IUPAC_INCHIKEY>
GIYVDMCEJOFGPU-UHFFFAOYSA-N

> <PUBCHEM_XLOGP3_AA>
4.6

> <PUBCHEM_EXACT_MASS>
510.09508215

> <PUBCHEM_MOLECULAR_FORMULA>
C29H18O9

> <PUBCHEM_MOLECULAR_WEIGHT>
510.4

> <PUBCHEM_OPENEYE_CAN_SMILES>
C1=CC(=CC=C1C2=CC(=C(C=C2)C(=O)O)C(=O)O)C(=O)C3=CC=C(C=C3)C4=CC(=C(C=C4)C(=O)O)C(=O)O

> <PUBCHEM_OPENEYE_ISO_SMILES>
C1=CC(=CC=C1C2=CC(=C(C=C2)C(=O)O)C(=O)O)C(=O)C3=CC=C(C=C3)C4=CC(=C(C=C4)C(=O)O)C(=O)O

> <PUBCHEM_CACTVS_TPSA>
166

> <PUBCHEM_MONOISOTOPIC_WEIGHT>
510.09508215

> <PUBCHEM_TOTAL_CHARGE>
0

> <PUBCHEM_HEAVY_ATOM_COUNT>
38

> <PUBCHEM_ATOM_DEF_STEREO_COUNT>
0

> <PUBCHEM_ATOM_UDEF_STEREO_COUNT>
0

> <PUBCHEM_BOND_DEF_STEREO_COUNT>
0

> <PUBCHEM_BOND_UDEF_STEREO_COUNT>
0

> <PUBCHEM_ISOTOPIC_ATOM_COUNT>
0

> <PUBCHEM_COMPONENT_COUNT>
1

> <PUBCHEM_CACTVS_TAUTO_COUNT>
-1

> <PUBCHEM_COORDINATE_TYPE>
1
5
255

> <PUBCHEM_BONDANNOTATIONS>
10  17  8
10  19  8
11  18  8
11  20  8
12  25  8
12  27  8
13  26  8
13  28  8
14  21  8
14  23  8
15  22  8
15  24  8
17  21  8
18  22  8
19  23  8
20  24  8
25  29  8
26  30  8
27  33  8
28  34  8
29  31  8
30  32  8
31  33  8
32  34  8

$$$$
