 
  -OEChem-10192104092D

 64 66  0     1  0  0  0  0  0999 V2000
    7.5397   -0.9050    0.0000 O   0  0  0  0  0  0  0  0  0  0  0  0
    5.8076    0.0950    0.0000 O   0  0  0  0  0  0  0  0  0  0  0  0
    4.8371    1.5895    0.0000 O   0  0  0  0  0  0  0  0  0  0  0  0
    9.2718   -0.9050    0.0000 O   0  0  0  0  0  0  0  0  0  0  0  0
    5.8076   -2.9050    0.0000 O   0  0  0  0  0  0  0  0  0  0  0  0
    7.5397   -3.9050    0.0000 O   0  0  0  0  0  0  0  0  0  0  0  0
    9.2718   -2.9050    0.0000 O   0  0  0  0  0  0  0  0  0  0  0  0
    3.8202   -0.7899    0.0000 O   0  0  0  0  0  0  0  0  0  0  0  0
    2.3644    0.8269    0.0000 O   0  0  0  0  0  0  0  0  0  0  0  0
    4.0400    3.5200    0.0000 O   0  0  0  0  0  0  0  0  0  0  0  0
   13.6019    3.5950    0.0000 O   0  0  0  0  0  0  0  0  0  0  0  0
    6.6737   -1.4050    0.0000 C   0  0  1  0  0  0  0  0  0  0  0  0
    6.6737   -2.4050    0.0000 C   0  0  2  0  0  0  0  0  0  0  0  0
    7.5397   -2.9050    0.0000 C   0  0  1  0  0  0  0  0  0  0  0  0
    8.4057   -2.4050    0.0000 C   0  0  2  0  0  0  0  0  0  0  0  0
    8.4057   -1.4050    0.0000 C   0  0  1  0  0  0  0  0  0  0  0  0
    4.9416    0.5950    0.0000 C   0  0  2  0  0  0  0  0  0  0  0  0
    4.0281    0.1883    0.0000 C   0  0  1  0  0  0  0  0  0  0  0  0
    3.3590    0.9314    0.0000 C   0  0  2  0  0  0  0  0  0  0  0  0
    5.8076   -0.9050    0.0000 C   0  0  0  0  0  0  0  0  0  0  0  0
    3.8590    1.7974    0.0000 C   0  0  3  0  0  0  0  0  0  0  0  0
    3.4522    2.7110    0.0000 C   0  0  0  0  0  0  0  0  0  0  0  0
    9.2718    0.0950    0.0000 C   0  0  3  0  0  0  0  0  0  0  0  0
   10.1378    0.5950    0.0000 C   0  0  0  0  0  0  0  0  0  0  0  0
    8.4057    0.5950    0.0000 C   0  0  0  0  0  0  0  0  0  0  0  0
   10.1378    1.5950    0.0000 C   0  0  0  0  0  0  0  0  0  0  0  0
   11.0038    2.0950    0.0000 C   0  0  0  0  0  0  0  0  0  0  0  0
   11.0038    3.0950    0.0000 C   0  0  0  0  0  0  0  0  0  0  0  0
   11.8698    1.5950    0.0000 C   0  0  0  0  0  0  0  0  0  0  0  0
   11.8698    3.5950    0.0000 C   0  0  0  0  0  0  0  0  0  0  0  0
   12.7359    2.0950    0.0000 C   0  0  0  0  0  0  0  0  0  0  0  0
   12.7359    3.0950    0.0000 C   0  0  0  0  0  0  0  0  0  0  0  0
    6.6737   -0.7850    0.0000 H   0  0  0  0  0  0  0  0  0  0  0  0
    6.6737   -3.0250    0.0000 H   0  0  0  0  0  0  0  0  0  0  0  0
    7.0028   -3.2150    0.0000 H   0  0  0  0  0  0  0  0  0  0  0  0
    8.4057   -3.0250    0.0000 H   0  0  0  0  0  0  0  0  0  0  0  0
    8.4057   -0.7850    0.0000 H   0  0  0  0  0  0  0  0  0  0  0  0
    4.9092   -0.0242    0.0000 H   0  0  0  0  0  0  0  0  0  0  0  0
    4.5099   -0.2019    0.0000 H   0  0  0  0  0  0  0  0  0  0  0  0
    3.1368    0.3526    0.0000 H   0  0  0  0  0  0  0  0  0  0  0  0
    5.1971   -0.7973    0.0000 H   0  0  0  0  0  0  0  0  0  0  0  0
    5.5956   -1.4876    0.0000 H   0  0  0  0  0  0  0  0  0  0  0  0
    4.2491    2.2793    0.0000 H   0  0  0  0  0  0  0  0  0  0  0  0
    9.8087   -0.2150    0.0000 H   0  0  0  0  0  0  0  0  0  0  0  0
    3.0215    3.1570    0.0000 H   0  0  0  0  0  0  0  0  0  0  0  0
    2.9382    2.3643    0.0000 H   0  0  0  0  0  0  0  0  0  0  0  0
    5.2707   -2.5950    0.0000 H   0  0  0  0  0  0  0  0  0  0  0  0
    7.0028   -4.2150    0.0000 H   0  0  0  0  0  0  0  0  0  0  0  0
    9.8087   -2.5950    0.0000 H   0  0  0  0  0  0  0  0  0  0  0  0
   10.3498    0.0124    0.0000 H   0  0  0  0  0  0  0  0  0  0  0  0
   10.7484    0.7027    0.0000 H   0  0  0  0  0  0  0  0  0  0  0  0
    3.2305   -0.9815    0.0000 H   0  0  0  0  0  0  0  0  0  0  0  0
    2.0000    1.3285    0.0000 H   0  0  0  0  0  0  0  0  0  0  0  0
    8.7157    1.1319    0.0000 H   0  0  0  0  0  0  0  0  0  0  0  0
    7.8688    0.9050    0.0000 H   0  0  0  0  0  0  0  0  0  0  0  0
    8.0957    0.0581    0.0000 H   0  0  0  0  0  0  0  0  0  0  0  0
    9.9257    2.1776    0.0000 H   0  0  0  0  0  0  0  0  0  0  0  0
    9.5272    1.4873    0.0000 H   0  0  0  0  0  0  0  0  0  0  0  0
    3.7878    4.0864    0.0000 H   0  0  0  0  0  0  0  0  0  0  0  0
   10.4669    3.4050    0.0000 H   0  0  0  0  0  0  0  0  0  0  0  0
   11.8698    0.9750    0.0000 H   0  0  0  0  0  0  0  0  0  0  0  0
   11.8698    4.2150    0.0000 H   0  0  0  0  0  0  0  0  0  0  0  0
   13.2728    1.7850    0.0000 H   0  0  0  0  0  0  0  0  0  0  0  0
   13.6019    4.2150    0.0000 H   0  0  0  0  0  0  0  0  0  0  0  0
  1 12  1  0  0  0  0
  1 16  1  0  0  0  0
 17  2  1  1  0  0  0
  2 20  1  0  0  0  0
  3 17  1  0  0  0  0
  3 21  1  0  0  0  0
 16  4  1  1  0  0  0
  4 23  1  0  0  0  0
 13  5  1  6  0  0  0
  5 47  1  0  0  0  0
 14  6  1  1  0  0  0
  6 48  1  0  0  0  0
 15  7  1  6  0  0  0
  7 49  1  0  0  0  0
 18  8  1  6  0  0  0
  8 52  1  0  0  0  0
 19  9  1  1  0  0  0
  9 53  1  0  0  0  0
 10 22  1  0  0  0  0
 10 59  1  0  0  0  0
 11 32  1  0  0  0  0
 11 64  1  0  0  0  0
 12 13  1  0  0  0  0
 12 20  1  1  0  0  0
 12 33  1  0  0  0  0
 13 14  1  0  0  0  0
 13 34  1  0  0  0  0
 14 15  1  0  0  0  0
 14 35  1  0  0  0  0
 15 16  1  0  0  0  0
 15 36  1  0  0  0  0
 16 37  1  0  0  0  0
 17 18  1  0  0  0  0
 17 38  1  0  0  0  0
 18 19  1  0  0  0  0
 18 39  1  0  0  0  0
 19 21  1  0  0  0  0
 19 40  1  0  0  0  0
 20 41  1  0  0  0  0
 20 42  1  0  0  0  0
 21 22  1  0  0  0  0
 21 43  1  0  0  0  0
 22 45  1  0  0  0  0
 22 46  1  0  0  0  0
 23 24  1  0  0  0  0
 23 25  1  0  0  0  0
 23 44  1  0  0  0  0
 24 26  1  0  0  0  0
 24 50  1  0  0  0  0
 24 51  1  0  0  0  0
 25 54  1  0  0  0  0
 25 55  1  0  0  0  0
 25 56  1  0  0  0  0
 26 27  1  0  0  0  0
 26 57  1  0  0  0  0
 26 58  1  0  0  0  0
 27 28  2  0  0  0  0
 27 29  1  0  0  0  0
 28 30  1  0  0  0  0
 28 60  1  0  0  0  0
 29 31  2  0  0  0  0
 29 61  1  0  0  0  0
 30 32  2  0  0  0  0
 30 62  1  0  0  0  0
 31 32  1  0  0  0  0
 31 63  1  0  0  0  0
M  END
> <PUBCHEM_COMPOUND_CID>
23815371

> <PUBCHEM_COMPOUND_CANONICALIZED>
1

> <PUBCHEM_CACTVS_COMPLEXITY>
558

> <PUBCHEM_CACTVS_HBOND_ACCEPTOR>
11

> <PUBCHEM_CACTVS_HBOND_DONOR>
7

> <PUBCHEM_CACTVS_ROTATABLE_BOND>
9

> <PUBCHEM_CACTVS_SUBSKEYS>
AAADcfB4PAAAAAAAAAAAAAAAAAAAASAAAAA0QAAAAAAAAAABAAAAGgAACAAADBSwmAMyDoAABgCAAiBCAAACAAAgIAAIiAAGCIgZNiKCERKicAAlwBEPmAfA4KwOIAAAAAAAAABAAAAAAAAAAAAAAAAAAA==

> <PUBCHEM_IUPAC_OPENEYE_NAME>
(2R,3S,4S,5R,6R)-2-[[(2R,3R,4R)-3,4-dihydroxy-5-(hydroxymethyl)tetrahydrofuran-2-yl]oxymethyl]-6-[3-(4-hydroxyphenyl)-1-methyl-propoxy]tetrahydropyran-3,4,5-triol

> <PUBCHEM_IUPAC_CAS_NAME>
(2R,3S,4S,5R,6R)-2-[[(2R,3R,4R)-3,4-dihydroxy-5-(hydroxymethyl)-2-oxolanyl]oxymethyl]-6-[4-(4-hydroxyphenyl)butan-2-yloxy]oxane-3,4,5-triol

> <PUBCHEM_IUPAC_NAME_MARKUP>
(2<I>R</I>,3<I>S</I>,4<I>S</I>,5<I>R</I>,6<I>R</I>)-2-[[(2<I>R</I>,3<I>R</I>,4<I>R</I>)-3,4-dihydroxy-5-(hydroxymethyl)oxolan-2-yl]oxymethyl]-6-[4-(4-hydroxyphenyl)butan-2-yloxy]oxane-3,4,5-triol

> <PUBCHEM_IUPAC_NAME>
(2R,3S,4S,5R,6R)-2-[[(2R,3R,4R)-3,4-dihydroxy-5-(hydroxymethyl)oxolan-2-yl]oxymethyl]-6-[4-(4-hydroxyphenyl)butan-2-yloxy]oxane-3,4,5-triol

> <PUBCHEM_IUPAC_SYSTEMATIC_NAME>
(2R,3S,4S,5R,6R)-2-[[(2R,3R,4R)-5-(hydroxymethyl)-3,4-bis(oxidanyl)oxolan-2-yl]oxymethyl]-6-[4-(4-hydroxyphenyl)butan-2-yloxy]oxane-3,4,5-triol

> <PUBCHEM_IUPAC_TRADITIONAL_NAME>
(2R,3S,4S,5R,6R)-2-[[(2R,3R,4R)-3,4-dihydroxy-5-methylol-tetrahydrofuran-2-yl]oxymethyl]-6-[3-(4-hydroxyphenyl)-1-methyl-propoxy]tetrahydropyran-3,4,5-triol

> <PUBCHEM_IUPAC_INCHI>
InChI=1S/C21H32O11/c1-10(2-3-11-4-6-12(23)7-5-11)30-21-19(28)17(26)16(25)14(32-21)9-29-20-18(27)15(24)13(8-22)31-20/h4-7,10,13-28H,2-3,8-9H2,1H3/t10?,13?,14-,15+,16-,17+,18-,19-,20-,21-/m1/s1

> <PUBCHEM_IUPAC_INCHIKEY>
DJDISCKFJXDADJ-COUYJTLKSA-N

> <PUBCHEM_XLOGP3_AA>
-1.2

> <PUBCHEM_EXACT_MASS>
460.19446183

> <PUBCHEM_MOLECULAR_FORMULA>
C21H32O11

> <PUBCHEM_MOLECULAR_WEIGHT>
460.5

> <PUBCHEM_OPENEYE_CAN_SMILES>
CC(CCC1=CC=C(C=C1)O)OC2C(C(C(C(O2)COC3C(C(C(O3)CO)O)O)O)O)O

> <PUBCHEM_OPENEYE_ISO_SMILES>
CC(CCC1=CC=C(C=C1)O)O[C@H]2[C@@H]([C@H]([C@@H]([C@H](O2)CO[C@H]3[C@@H]([C@H](C(O3)CO)O)O)O)O)O

> <PUBCHEM_CACTVS_TPSA>
179

> <PUBCHEM_MONOISOTOPIC_WEIGHT>
460.19446183

> <PUBCHEM_TOTAL_CHARGE>
0

> <PUBCHEM_HEAVY_ATOM_COUNT>
32

> <PUBCHEM_ATOM_DEF_STEREO_COUNT>
8

> <PUBCHEM_ATOM_UDEF_STEREO_COUNT>
2

> <PUBCHEM_BOND_DEF_STEREO_COUNT>
0

> <PUBCHEM_BOND_UDEF_STEREO_COUNT>
0

> <PUBCHEM_ISOTOPIC_ATOM_COUNT>
0

> <PUBCHEM_COMPONENT_COUNT>
1

> <PUBCHEM_CACTVS_TAUTO_COUNT>
-1

> <PUBCHEM_COORDINATE_TYPE>
1
5
255

> <PUBCHEM_BONDANNOTATIONS>
12  20  5
17  2  5
21  22  3
23  25  3
27  28  8
27  29  8
28  30  8
29  31  8
30  32  8
31  32  8
16  4  5
13  5  6
14  6  5
15  7  6
18  8  6
19  9  5

$$$$
