 
  -OEChem-10192103522D

 91 96  0     1  0  0  0  0  0999 V2000
    9.7235    2.0068    0.0000 S   0  0  0  0  0  0  0  0  0  0  0  0
    5.3934   -2.4932    0.0000 O   0  0  0  0  0  0  0  0  0  0  0  0
   11.4556    2.0068    0.0000 O   0  0  0  0  0  0  0  0  0  0  0  0
    4.5274   -0.9932    0.0000 O   0  0  0  0  0  0  0  0  0  0  0  0
    7.9915    0.0068    0.0000 O   0  0  0  0  0  0  0  0  0  0  0  0
   10.5895    0.5068    0.0000 O   0  0  0  0  0  0  0  0  0  0  0  0
    7.1254    3.5068    0.0000 O   0  0  0  0  0  0  0  0  0  0  0  0
    4.5274    3.0068    0.0000 O   0  0  0  0  0  0  0  0  0  0  0  0
    3.6613    1.5068    0.0000 O   0  0  0  0  0  0  0  0  0  0  0  0
    9.7235    6.0068    0.0000 O   0  0  0  0  0  0  0  0  0  0  0  0
   10.5895    4.5068    0.0000 O   0  0  0  0  0  0  0  0  0  0  0  0
    6.2594   -0.9932    0.0000 N   0  0  0  0  0  0  0  0  0  0  0  0
    7.1254    1.5068    0.0000 N   0  0  0  0  0  0  0  0  0  0  0  0
    8.8575    3.5068    0.0000 N   0  0  0  0  0  0  0  0  0  0  0  0
    4.5274   -3.9932    0.0000 C   0  0  0  0  0  0  0  0  0  0  0  0
   13.1876    2.0068    0.0000 C   0  0  0  0  0  0  0  0  0  0  0  0
    5.3364   -4.5810    0.0000 C   0  0  0  0  0  0  0  0  0  0  0  0
    3.7183   -4.5810    0.0000 C   0  0  0  0  0  0  0  0  0  0  0  0
   13.2921    3.0013    0.0000 C   0  0  0  0  0  0  0  0  0  0  0  0
   14.1012    1.6000    0.0000 C   0  0  0  0  0  0  0  0  0  0  0  0
    5.0274   -5.5320    0.0000 C   0  0  0  0  0  0  0  0  0  0  0  0
    4.0274   -5.5320    0.0000 C   0  0  0  0  0  0  0  0  0  0  0  0
   14.2703    3.2092    0.0000 C   0  0  0  0  0  0  0  0  0  0  0  0
   14.7703    2.3432    0.0000 C   0  0  0  0  0  0  0  0  0  0  0  0
    4.5274   -2.9932    0.0000 C   0  0  0  0  0  0  0  0  0  0  0  0
   12.3216    1.5068    0.0000 C   0  0  0  0  0  0  0  0  0  0  0  0
    6.3518   -4.3488    0.0000 C   0  0  0  0  0  0  0  0  0  0  0  0
    2.7029   -4.3488    0.0000 C   0  0  0  0  0  0  0  0  0  0  0  0
   12.5833    3.7646    0.0000 C   0  0  0  0  0  0  0  0  0  0  0  0
   14.4077    0.6046    0.0000 C   0  0  0  0  0  0  0  0  0  0  0  0
    5.7123   -6.3168    0.0000 C   0  0  0  0  0  0  0  0  0  0  0  0
    3.3424   -6.3168    0.0000 C   0  0  0  0  0  0  0  0  0  0  0  0
   14.6074    4.1948    0.0000 C   0  0  0  0  0  0  0  0  0  0  0  0
   15.7924    2.1424    0.0000 C   0  0  0  0  0  0  0  0  0  0  0  0
    7.0547   -5.1174    0.0000 C   0  0  0  0  0  0  0  0  0  0  0  0
    2.0000   -5.1174    0.0000 C   0  0  0  0  0  0  0  0  0  0  0  0
    6.7328   -6.1081    0.0000 C   0  0  0  0  0  0  0  0  0  0  0  0
    2.3219   -6.1081    0.0000 C   0  0  0  0  0  0  0  0  0  0  0  0
   12.8975    4.7577    0.0000 C   0  0  0  0  0  0  0  0  0  0  0  0
   15.4249    0.3801    0.0000 C   0  0  0  0  0  0  0  0  0  0  0  0
   13.9164    4.9742    0.0000 C   0  0  0  0  0  0  0  0  0  0  0  0
   16.1219    1.1542    0.0000 C   0  0  0  0  0  0  0  0  0  0  0  0
    6.2594    0.0068    0.0000 C   0  0  1  0  0  0  0  0  0  0  0  0
    5.3934   -1.4932    0.0000 C   0  0  0  0  0  0  0  0  0  0  0  0
    5.3934    0.5068    0.0000 C   0  0  0  0  0  0  0  0  0  0  0  0
    7.9915    2.0068    0.0000 C   0  0  1  0  0  0  0  0  0  0  0  0
    7.1254    0.5068    0.0000 C   0  0  0  0  0  0  0  0  0  0  0  0
   10.5895    1.5068    0.0000 C   0  0  0  0  0  0  0  0  0  0  0  0
    8.8575    1.5068    0.0000 C   0  0  0  0  0  0  0  0  0  0  0  0
    5.3934    1.5068    0.0000 C   0  0  0  0  0  0  0  0  0  0  0  0
    7.9915    3.0068    0.0000 C   0  0  0  0  0  0  0  0  0  0  0  0
    4.5274    2.0068    0.0000 C   0  0  0  0  0  0  0  0  0  0  0  0
    8.8575    4.5068    0.0000 C   0  0  0  0  0  0  0  0  0  0  0  0
    9.7235    5.0068    0.0000 C   0  0  0  0  0  0  0  0  0  0  0  0
    5.0798   -3.7117    0.0000 H   0  0  0  0  0  0  0  0  0  0  0  0
   12.6676    2.3445    0.0000 H   0  0  0  0  0  0  0  0  0  0  0  0
    4.3153   -2.4106    0.0000 H   0  0  0  0  0  0  0  0  0  0  0  0
    3.9168   -3.1009    0.0000 H   0  0  0  0  0  0  0  0  0  0  0  0
   11.9231    1.0318    0.0000 H   0  0  0  0  0  0  0  0  0  0  0  0
   12.7201    1.0318    0.0000 H   0  0  0  0  0  0  0  0  0  0  0  0
    6.5365   -3.7569    0.0000 H   0  0  0  0  0  0  0  0  0  0  0  0
    2.5182   -3.7569    0.0000 H   0  0  0  0  0  0  0  0  0  0  0  0
   11.9784    3.6286    0.0000 H   0  0  0  0  0  0  0  0  0  0  0  0
   13.9876    0.1486    0.0000 H   0  0  0  0  0  0  0  0  0  0  0  0
    5.5139   -6.9042    0.0000 H   0  0  0  0  0  0  0  0  0  0  0  0
    3.5408   -6.9042    0.0000 H   0  0  0  0  0  0  0  0  0  0  0  0
   15.2153    4.3167    0.0000 H   0  0  0  0  0  0  0  0  0  0  0  0
   16.2019    2.6079    0.0000 H   0  0  0  0  0  0  0  0  0  0  0  0
    7.6607   -4.9862    0.0000 H   0  0  0  0  0  0  0  0  0  0  0  0
    1.3940   -4.9862    0.0000 H   0  0  0  0  0  0  0  0  0  0  0  0
    7.1459   -6.5704    0.0000 H   0  0  0  0  0  0  0  0  0  0  0  0
    1.9088   -6.5704    0.0000 H   0  0  0  0  0  0  0  0  0  0  0  0
   12.4809    5.2168    0.0000 H   0  0  0  0  0  0  0  0  0  0  0  0
   15.6142   -0.2102    0.0000 H   0  0  0  0  0  0  0  0  0  0  0  0
   14.1103    5.5631    0.0000 H   0  0  0  0  0  0  0  0  0  0  0  0
   16.7288    1.0277    0.0000 H   0  0  0  0  0  0  0  0  0  0  0  0
    6.7964   -0.3032    0.0000 H   0  0  0  0  0  0  0  0  0  0  0  0
    4.7828    0.6145    0.0000 H   0  0  0  0  0  0  0  0  0  0  0  0
    5.1813   -0.0758    0.0000 H   0  0  0  0  0  0  0  0  0  0  0  0
    6.7964   -1.3032    0.0000 H   0  0  0  0  0  0  0  0  0  0  0  0
    7.9915    1.3868    0.0000 H   0  0  0  0  0  0  0  0  0  0  0  0
    6.5885    1.8168    0.0000 H   0  0  0  0  0  0  0  0  0  0  0  0
    8.4590    1.0318    0.0000 H   0  0  0  0  0  0  0  0  0  0  0  0
    9.2560    1.0318    0.0000 H   0  0  0  0  0  0  0  0  0  0  0  0
    6.0040    1.3991    0.0000 H   0  0  0  0  0  0  0  0  0  0  0  0
    5.6054    2.0894    0.0000 H   0  0  0  0  0  0  0  0  0  0  0  0
    9.3944    3.1968    0.0000 H   0  0  0  0  0  0  0  0  0  0  0  0
    8.6454    5.0894    0.0000 H   0  0  0  0  0  0  0  0  0  0  0  0
    8.2469    4.3991    0.0000 H   0  0  0  0  0  0  0  0  0  0  0  0
    3.9904    3.3168    0.0000 H   0  0  0  0  0  0  0  0  0  0  0  0
    9.1866    6.3168    0.0000 H   0  0  0  0  0  0  0  0  0  0  0  0
  1 48  1  0  0  0  0
  1 49  1  0  0  0  0
  2 25  1  0  0  0  0
  2 44  1  0  0  0  0
  3 26  1  0  0  0  0
  3 48  1  0  0  0  0
  4 44  2  0  0  0  0
  5 47  2  0  0  0  0
  6 48  2  0  0  0  0
  7 51  2  0  0  0  0
  8 52  1  0  0  0  0
  8 90  1  0  0  0  0
  9 52  2  0  0  0  0
 10 54  1  0  0  0  0
 10 91  1  0  0  0  0
 11 54  2  0  0  0  0
 43 12  1  1  0  0  0
 12 44  1  0  0  0  0
 12 80  1  0  0  0  0
 46 13  1  6  0  0  0
 13 47  1  0  0  0  0
 13 82  1  0  0  0  0
 14 51  1  0  0  0  0
 14 53  1  0  0  0  0
 14 87  1  0  0  0  0
 15 17  1  0  0  0  0
 15 18  1  0  0  0  0
 15 25  1  0  0  0  0
 15 55  1  0  0  0  0
 16 19  1  0  0  0  0
 16 20  1  0  0  0  0
 16 26  1  0  0  0  0
 16 56  1  0  0  0  0
 17 21  1  0  0  0  0
 17 27  2  0  0  0  0
 18 22  1  0  0  0  0
 18 28  2  0  0  0  0
 19 23  1  0  0  0  0
 19 29  2  0  0  0  0
 20 24  1  0  0  0  0
 20 30  2  0  0  0  0
 21 22  1  0  0  0  0
 21 31  2  0  0  0  0
 22 32  2  0  0  0  0
 23 24  1  0  0  0  0
 23 33  2  0  0  0  0
 24 34  2  0  0  0  0
 25 57  1  0  0  0  0
 25 58  1  0  0  0  0
 26 59  1  0  0  0  0
 26 60  1  0  0  0  0
 27 35  1  0  0  0  0
 27 61  1  0  0  0  0
 28 36  1  0  0  0  0
 28 62  1  0  0  0  0
 29 39  1  0  0  0  0
 29 63  1  0  0  0  0
 30 40  1  0  0  0  0
 30 64  1  0  0  0  0
 31 37  1  0  0  0  0
 31 65  1  0  0  0  0
 32 38  1  0  0  0  0
 32 66  1  0  0  0  0
 33 41  1  0  0  0  0
 33 67  1  0  0  0  0
 34 42  1  0  0  0  0
 34 68  1  0  0  0  0
 35 37  2  0  0  0  0
 35 69  1  0  0  0  0
 36 38  2  0  0  0  0
 36 70  1  0  0  0  0
 37 71  1  0  0  0  0
 38 72  1  0  0  0  0
 39 41  2  0  0  0  0
 39 73  1  0  0  0  0
 40 42  2  0  0  0  0
 40 74  1  0  0  0  0
 41 75  1  0  0  0  0
 42 76  1  0  0  0  0
 43 45  1  0  0  0  0
 43 47  1  0  0  0  0
 43 77  1  0  0  0  0
 45 50  1  0  0  0  0
 45 78  1  0  0  0  0
 45 79  1  0  0  0  0
 46 49  1  0  0  0  0
 46 51  1  0  0  0  0
 46 81  1  0  0  0  0
 49 83  1  0  0  0  0
 49 84  1  0  0  0  0
 50 52  1  0  0  0  0
 50 85  1  0  0  0  0
 50 86  1  0  0  0  0
 53 54  1  0  0  0  0
 53 88  1  0  0  0  0
 53 89  1  0  0  0  0
M  END
> <PUBCHEM_COMPOUND_CID>
102600850

> <PUBCHEM_COMPOUND_CANONICALIZED>
1

> <PUBCHEM_CACTVS_COMPLEXITY>
1320

> <PUBCHEM_CACTVS_HBOND_ACCEPTOR>
11

> <PUBCHEM_CACTVS_HBOND_DONOR>
5

> <PUBCHEM_CACTVS_ROTATABLE_BOND>
18

> <PUBCHEM_CACTVS_SUBSKEYS>
AAADcfB/PABAAAAAAAAAAAAAAAAAAYMAAAAwYMGAAAAAAGABVAAAHgQQCAAADSjl2AawCILABgiIAiHSGAACAAAgABAIiIGIAIkKYDKgkTCcYAAk1gGYiAe81/IOgAAAAAAQAAAAAAAAACAAAQAACAAAAA==

> <PUBCHEM_IUPAC_OPENEYE_NAME>
(4S)-5-[[(1R)-2-(carboxymethylamino)-1-(9H-fluoren-9-ylmethoxycarbonylsulfanylmethyl)-2-oxo-ethyl]amino]-4-(9H-fluoren-9-ylmethoxycarbonylamino)-5-oxo-pentanoic acid

> <PUBCHEM_IUPAC_CAS_NAME>
(4S)-5-[[(2R)-1-(carboxymethylamino)-3-[[9H-fluoren-9-ylmethoxy(oxo)methyl]thio]-1-oxopropan-2-yl]amino]-4-[[9H-fluoren-9-ylmethoxy(oxo)methyl]amino]-5-oxopentanoic acid

> <PUBCHEM_IUPAC_NAME_MARKUP>
(4<I>S</I>)-5-[[(2<I>R</I>)-1-(carboxymethylamino)-3-(9<I>H</I>-fluoren-9-ylmethoxycarbonylsulfanyl)-1-oxopropan-2-yl]amino]-4-(9<I>H</I>-fluoren-9-ylmethoxycarbonylamino)-5-oxopentanoic acid

> <PUBCHEM_IUPAC_NAME>
(4S)-5-[[(2R)-1-(carboxymethylamino)-3-(9H-fluoren-9-ylmethoxycarbonylsulfanyl)-1-oxopropan-2-yl]amino]-4-(9H-fluoren-9-ylmethoxycarbonylamino)-5-oxopentanoic acid

> <PUBCHEM_IUPAC_SYSTEMATIC_NAME>
(4S)-4-(9H-fluoren-9-ylmethoxycarbonylamino)-5-[[(2R)-3-(9H-fluoren-9-ylmethoxycarbonylsulfanyl)-1-(2-hydroxy-2-oxoethylamino)-1-oxidanylidene-propan-2-yl]amino]-5-oxidanylidene-pentanoic acid

> <PUBCHEM_IUPAC_TRADITIONAL_NAME>
(4S)-5-[[(1R)-2-(carboxymethylamino)-1-[(9H-fluoren-9-ylmethoxycarbonylthio)methyl]-2-keto-ethyl]amino]-4-(9H-fluoren-9-ylmethoxycarbonylamino)-5-keto-valeric acid

> <PUBCHEM_IUPAC_INCHI>
InChI=1S/C40H37N3O10S/c44-35(45)18-17-33(43-39(50)52-20-31-27-13-5-1-9-23(27)24-10-2-6-14-28(24)31)38(49)42-34(37(48)41-19-36(46)47)22-54-40(51)53-21-32-29-15-7-3-11-25(29)26-12-4-8-16-30(26)32/h1-16,31-34H,17-22H2,(H,41,48)(H,42,49)(H,43,50)(H,44,45)(H,46,47)/t33-,34-/m0/s1

> <PUBCHEM_IUPAC_INCHIKEY>
RASUYODSPFXBSK-HEVIKAOCSA-N

> <PUBCHEM_XLOGP3_AA>
5.2

> <PUBCHEM_EXACT_MASS>
751.21996556

> <PUBCHEM_MOLECULAR_FORMULA>
C40H37N3O10S

> <PUBCHEM_MOLECULAR_WEIGHT>
751.8

> <PUBCHEM_OPENEYE_CAN_SMILES>
C1=CC=C2C(=C1)C(C3=CC=CC=C32)COC(=O)NC(CCC(=O)O)C(=O)NC(CSC(=O)OCC4C5=CC=CC=C5C6=CC=CC=C46)C(=O)NCC(=O)O

> <PUBCHEM_OPENEYE_ISO_SMILES>
C1=CC=C2C(=C1)C(C3=CC=CC=C32)COC(=O)N[C@@H](CCC(=O)O)C(=O)N[C@@H](CSC(=O)OCC4C5=CC=CC=C5C6=CC=CC=C46)C(=O)NCC(=O)O

> <PUBCHEM_CACTVS_TPSA>
223

> <PUBCHEM_MONOISOTOPIC_WEIGHT>
751.21996556

> <PUBCHEM_TOTAL_CHARGE>
0

> <PUBCHEM_HEAVY_ATOM_COUNT>
54

> <PUBCHEM_ATOM_DEF_STEREO_COUNT>
2

> <PUBCHEM_ATOM_UDEF_STEREO_COUNT>
0

> <PUBCHEM_BOND_DEF_STEREO_COUNT>
0

> <PUBCHEM_BOND_UDEF_STEREO_COUNT>
0

> <PUBCHEM_ISOTOPIC_ATOM_COUNT>
0

> <PUBCHEM_COMPONENT_COUNT>
1

> <PUBCHEM_CACTVS_TAUTO_COUNT>
784

> <PUBCHEM_COORDINATE_TYPE>
1
5
255

> <PUBCHEM_BONDANNOTATIONS>
43  12  5
46  13  6
17  21  8
17  27  8
18  22  8
18  28  8
19  23  8
19  29  8
20  24  8
20  30  8
21  31  8
22  32  8
23  33  8
24  34  8
27  35  8
28  36  8
29  39  8
30  40  8
31  37  8
32  38  8
33  41  8
34  42  8
35  37  8
36  38  8
39  41  8
40  42  8

$$$$
