 
  -OEChem-10192103412D

 46 47  0     1  0  0  0  0  0999 V2000
    6.8671   -0.5000    0.0000 O   0  0  0  0  0  0  0  0  0  0  0  0
    6.8671    2.5000    0.0000 O   0  0  0  0  0  0  0  0  0  0  0  0
    5.1350   -0.5000    0.0000 O   0  0  0  0  0  0  0  0  0  0  0  0
    8.5991    0.5000    0.0000 O   0  0  0  0  0  0  0  0  0  0  0  0
    5.1350    0.5000    0.0000 O   0  0  0  0  0  0  0  0  0  0  0  0
    6.8671   -2.5000    0.0000 O   0  0  0  0  0  0  0  0  0  0  0  0
    5.1350   -3.5000    0.0000 O   0  0  0  0  0  0  0  0  0  0  0  0
    3.4030   -2.5000    0.0000 O   0  0  0  0  0  0  0  0  0  0  0  0
    8.5991    3.5000    0.0000 O   0  0  0  0  0  0  0  0  0  0  0  0
    2.5369   -1.0000    0.0000 O   0  0  0  0  0  0  0  0  0  0  0  0
    3.4030    0.5000    0.0000 O   0  0  0  0  0  0  0  0  0  0  0  0
    6.8671    0.5000    0.0000 C   0  0  1  0  0  0  0  0  0  0  0  0
    7.7331    1.0000    0.0000 C   0  0  2  0  0  0  0  0  0  0  0  0
    6.0010    1.0000    0.0000 C   0  0  3  0  0  0  0  0  0  0  0  0
    7.7331    2.0000    0.0000 C   0  0  3  0  0  0  0  0  0  0  0  0
    6.0010    2.0000    0.0000 C   0  0  2  0  0  0  0  0  0  0  0  0
    6.0010   -1.0000    0.0000 C   0  0  2  0  0  0  0  0  0  0  0  0
    6.0010   -2.0000    0.0000 C   0  0  3  0  0  0  0  0  0  0  0  0
    5.1350   -2.5000    0.0000 C   0  0  2  0  0  0  0  0  0  0  0  0
    4.2690   -2.0000    0.0000 C   0  0  1  0  0  0  0  0  0  0  0  0
    4.2690   -1.0000    0.0000 C   0  0  3  0  0  0  0  0  0  0  0  0
    8.5991    2.5000    0.0000 C   0  0  0  0  0  0  0  0  0  0  0  0
    5.1350    2.5000    0.0000 C   0  0  0  0  0  0  0  0  0  0  0  0
    3.4030   -0.5000    0.0000 C   0  0  0  0  0  0  0  0  0  0  0  0
    7.4040    0.1900    0.0000 H   0  0  0  0  0  0  0  0  0  0  0  0
    8.2700    1.3100    0.0000 H   0  0  0  0  0  0  0  0  0  0  0  0
    6.0010    0.3800    0.0000 H   0  0  0  0  0  0  0  0  0  0  0  0
    7.7331    2.6200    0.0000 H   0  0  0  0  0  0  0  0  0  0  0  0
    6.0010    2.6200    0.0000 H   0  0  0  0  0  0  0  0  0  0  0  0
    6.0010   -0.3800    0.0000 H   0  0  0  0  0  0  0  0  0  0  0  0
    6.0010   -2.6200    0.0000 H   0  0  0  0  0  0  0  0  0  0  0  0
    4.5981   -2.8100    0.0000 H   0  0  0  0  0  0  0  0  0  0  0  0
    3.7320   -1.6900    0.0000 H   0  0  0  0  0  0  0  0  0  0  0  0
    4.2690   -0.3800    0.0000 H   0  0  0  0  0  0  0  0  0  0  0  0
    8.8112    1.9174    0.0000 H   0  0  0  0  0  0  0  0  0  0  0  0
    9.2097    2.6077    0.0000 H   0  0  0  0  0  0  0  0  0  0  0  0
    5.4450    3.0369    0.0000 H   0  0  0  0  0  0  0  0  0  0  0  0
    4.5981    2.8100    0.0000 H   0  0  0  0  0  0  0  0  0  0  0  0
    4.8250    1.9631    0.0000 H   0  0  0  0  0  0  0  0  0  0  0  0
    9.1360    0.8100    0.0000 H   0  0  0  0  0  0  0  0  0  0  0  0
    4.5981    0.8100    0.0000 H   0  0  0  0  0  0  0  0  0  0  0  0
    7.4040   -2.1900    0.0000 H   0  0  0  0  0  0  0  0  0  0  0  0
    5.6720   -3.8100    0.0000 H   0  0  0  0  0  0  0  0  0  0  0  0
    3.4030   -3.1200    0.0000 H   0  0  0  0  0  0  0  0  0  0  0  0
    9.1360    3.8100    0.0000 H   0  0  0  0  0  0  0  0  0  0  0  0
    2.0000   -0.6900    0.0000 H   0  0  0  0  0  0  0  0  0  0  0  0
 12  1  1  6  0  0  0
 17  1  1  1  0  0  0
  2 15  1  0  0  0  0
  2 16  1  0  0  0  0
  3 17  1  0  0  0  0
  3 21  1  0  0  0  0
 13  4  1  6  0  0  0
  4 40  1  0  0  0  0
  5 14  1  0  0  0  0
  5 41  1  0  0  0  0
  6 18  1  0  0  0  0
  6 42  1  0  0  0  0
 19  7  1  1  0  0  0
  7 43  1  0  0  0  0
 20  8  1  6  0  0  0
  8 44  1  0  0  0  0
  9 22  1  0  0  0  0
  9 45  1  0  0  0  0
 10 24  1  0  0  0  0
 10 46  1  0  0  0  0
 11 24  2  0  0  0  0
 12 13  1  0  0  0  0
 12 14  1  0  0  0  0
 12 25  1  0  0  0  0
 13 15  1  0  0  0  0
 13 26  1  0  0  0  0
 14 16  1  0  0  0  0
 14 27  1  0  0  0  0
 15 22  1  0  0  0  0
 15 28  1  0  0  0  0
 16 23  1  6  0  0  0
 16 29  1  0  0  0  0
 17 18  1  0  0  0  0
 17 30  1  0  0  0  0
 18 19  1  0  0  0  0
 18 31  1  0  0  0  0
 19 20  1  0  0  0  0
 19 32  1  0  0  0  0
 20 21  1  0  0  0  0
 20 33  1  0  0  0  0
 21 24  1  0  0  0  0
 21 34  1  0  0  0  0
 22 35  1  0  0  0  0
 22 36  1  0  0  0  0
 23 37  1  0  0  0  0
 23 38  1  0  0  0  0
 23 39  1  0  0  0  0
M  END
> <PUBCHEM_COMPOUND_CID>
126497797

> <PUBCHEM_COMPOUND_CANONICALIZED>
1

> <PUBCHEM_CACTVS_COMPLEXITY>
446

> <PUBCHEM_CACTVS_HBOND_ACCEPTOR>
11

> <PUBCHEM_CACTVS_HBOND_DONOR>
7

> <PUBCHEM_CACTVS_ROTATABLE_BOND>
4

> <PUBCHEM_CACTVS_SUBSKEYS>
AAADceBwPAAAAAAAAAAAAAAAAAAAAAAAAAAkSAAAAAAAAAAAAAAAGgAACAAACBSwgAMCCAAABgAIAACQCAIAAAAAAAAAAAFAAAAREBYAAAQiQAAFIAAHAAHK7CxAAAAAAAAAAAAAAAAAAAAAAAAAAAAAAA==

> <PUBCHEM_IUPAC_OPENEYE_NAME>
(3S,4S,6R)-6-[(3S,4R,6S)-3,5-dihydroxy-2-(hydroxymethyl)-6-methyl-tetrahydropyran-4-yl]oxy-3,4,5-trihydroxy-tetrahydropyran-2-carboxylic acid

> <PUBCHEM_IUPAC_CAS_NAME>
(3S,4S,6R)-6-[[(3S,4R,6S)-3,5-dihydroxy-2-(hydroxymethyl)-6-methyl-4-oxanyl]oxy]-3,4,5-trihydroxy-2-oxanecarboxylic acid

> <PUBCHEM_IUPAC_NAME_MARKUP>
(3<I>S</I>,4<I>S</I>,6<I>R</I>)-6-[(3<I>S</I>,4<I>R</I>,6<I>S</I>)-3,5-dihydroxy-2-(hydroxymethyl)-6-methyloxan-4-yl]oxy-3,4,5-trihydroxyoxane-2-carboxylic acid

> <PUBCHEM_IUPAC_NAME>
(3S,4S,6R)-6-[(3S,4R,6S)-3,5-dihydroxy-2-(hydroxymethyl)-6-methyloxan-4-yl]oxy-3,4,5-trihydroxyoxane-2-carboxylic acid

> <PUBCHEM_IUPAC_SYSTEMATIC_NAME>
(3S,4S,6R)-6-[(3S,4R,6S)-2-(hydroxymethyl)-6-methyl-3,5-bis(oxidanyl)oxan-4-yl]oxy-3,4,5-tris(oxidanyl)oxane-2-carboxylic acid

> <PUBCHEM_IUPAC_TRADITIONAL_NAME>
(3S,4S,6R)-6-[(2S,4R,5S)-3,5-dihydroxy-2-methyl-6-methylol-tetrahydropyran-4-yl]oxy-3,4,5-trihydroxy-tetrahydropyran-2-carboxylic acid

> <PUBCHEM_IUPAC_INCHI>
InChI=1S/C13H22O11/c1-3-5(15)10(6(16)4(2-14)22-3)23-13-9(19)7(17)8(18)11(24-13)12(20)21/h3-11,13-19H,2H2,1H3,(H,20,21)/t3-,4?,5?,6-,7-,8-,9?,10+,11?,13+/m0/s1

> <PUBCHEM_IUPAC_INCHIKEY>
LEFIRKDFJNGNKY-QZPSHAHCSA-N

> <PUBCHEM_XLOGP3_AA>
-3

> <PUBCHEM_EXACT_MASS>
354.11621151

> <PUBCHEM_MOLECULAR_FORMULA>
C13H22O11

> <PUBCHEM_MOLECULAR_WEIGHT>
354.31

> <PUBCHEM_OPENEYE_CAN_SMILES>
CC1C(C(C(C(O1)CO)O)OC2C(C(C(C(O2)C(=O)O)O)O)O)O

> <PUBCHEM_OPENEYE_ISO_SMILES>
C[C@H]1C([C@H]([C@H](C(O1)CO)O)O[C@H]2C([C@H]([C@@H](C(O2)C(=O)O)O)O)O)O

> <PUBCHEM_CACTVS_TPSA>
186

> <PUBCHEM_MONOISOTOPIC_WEIGHT>
354.11621151

> <PUBCHEM_TOTAL_CHARGE>
0

> <PUBCHEM_HEAVY_ATOM_COUNT>
24

> <PUBCHEM_ATOM_DEF_STEREO_COUNT>
6

> <PUBCHEM_ATOM_UDEF_STEREO_COUNT>
4

> <PUBCHEM_BOND_DEF_STEREO_COUNT>
0

> <PUBCHEM_BOND_UDEF_STEREO_COUNT>
0

> <PUBCHEM_ISOTOPIC_ATOM_COUNT>
0

> <PUBCHEM_COMPONENT_COUNT>
1

> <PUBCHEM_CACTVS_TAUTO_COUNT>
-1

> <PUBCHEM_COORDINATE_TYPE>
1
5
255

> <PUBCHEM_BONDANNOTATIONS>
12  1  6
17  1  5
15  22  3
16  23  6
21  24  3
13  4  6
14  5  3
18  6  3
19  7  5
20  8  6

$$$$
