 
  -OEChem-10192104232D

 27 27  0     1  0  0  0  0  0999 V2000
    3.9726   -1.9789    0.0000 O   0  0  0  0  0  0  0  0  0  0  0  0
    2.5123   -0.8144    0.0000 O   0  0  0  0  0  0  0  0  0  0  0  0
    3.9726    2.2179    0.0000 O   0  0  0  0  0  0  0  0  0  0  0  0
    7.1039    0.9855    0.0000 O   0  0  0  0  0  0  0  0  0  0  0  0
    7.1039   -0.7465    0.0000 O   0  0  0  0  0  0  0  0  0  0  0  0
    5.6039    0.1195    0.0000 C   0  0  3  0  0  0  0  0  0  0  0  0
    5.1700   -0.7815    0.0000 C   0  0  0  0  0  0  0  0  0  0  0  0
    4.1951   -1.0040    0.0000 C   0  0  3  0  0  0  0  0  0  0  0  0
    5.1700    1.0204    0.0000 C   0  0  0  0  0  0  0  0  0  0  0  0
    3.4132   -0.3805    0.0000 C   0  0  3  0  0  0  0  0  0  0  0  0
    4.1951    1.2430    0.0000 C   0  0  3  0  0  0  0  0  0  0  0  0
    3.4132    0.6195    0.0000 C   0  0  0  0  0  0  0  0  0  0  0  0
    6.6039    0.1195    0.0000 C   0  0  0  0  0  0  0  0  0  0  0  0
    5.9337   -0.4055    0.0000 H   0  0  0  0  0  0  0  0  0  0  0  0
    5.1700   -1.4015    0.0000 H   0  0  0  0  0  0  0  0  0  0  0  0
    5.7744   -0.9195    0.0000 H   0  0  0  0  0  0  0  0  0  0  0  0
    3.6099   -1.2088    0.0000 H   0  0  0  0  0  0  0  0  0  0  0  0
    5.7744    1.1584    0.0000 H   0  0  0  0  0  0  0  0  0  0  0  0
    5.1700    1.6404    0.0000 H   0  0  0  0  0  0  0  0  0  0  0  0
    2.8883   -0.0507    0.0000 H   0  0  0  0  0  0  0  0  0  0  0  0
    3.6099    1.4477    0.0000 H   0  0  0  0  0  0  0  0  0  0  0  0
    3.1442    1.1781    0.0000 H   0  0  0  0  0  0  0  0  0  0  0  0
    2.8088    0.4815    0.0000 H   0  0  0  0  0  0  0  0  0  0  0  0
    4.4270   -2.4006    0.0000 H   0  0  0  0  0  0  0  0  0  0  0  0
    2.0000   -0.4651    0.0000 H   0  0  0  0  0  0  0  0  0  0  0  0
    3.3801    2.4006    0.0000 H   0  0  0  0  0  0  0  0  0  0  0  0
    7.7239    0.9855    0.0000 H   0  0  0  0  0  0  0  0  0  0  0  0
  1  8  1  0  0  0  0
  1 24  1  0  0  0  0
  2 10  1  0  0  0  0
  2 25  1  0  0  0  0
  3 11  1  0  0  0  0
  3 26  1  0  0  0  0
  4 13  1  0  0  0  0
  4 27  1  0  0  0  0
  5 13  2  0  0  0  0
  6  7  1  0  0  0  0
  6  9  1  0  0  0  0
  6 13  1  0  0  0  0
  6 14  1  0  0  0  0
  7  8  1  0  0  0  0
  7 15  1  0  0  0  0
  7 16  1  0  0  0  0
  8 10  1  0  0  0  0
  8 17  1  0  0  0  0
  9 11  1  0  0  0  0
  9 18  1  0  0  0  0
  9 19  1  0  0  0  0
 10 12  1  0  0  0  0
 10 20  1  0  0  0  0
 11 12  1  0  0  0  0
 11 21  1  0  0  0  0
 12 22  1  0  0  0  0
 12 23  1  0  0  0  0
M  END
> <PUBCHEM_COMPOUND_CID>
129926708

> <PUBCHEM_COMPOUND_CANONICALIZED>
1

> <PUBCHEM_CACTVS_COMPLEXITY>
193

> <PUBCHEM_CACTVS_HBOND_ACCEPTOR>
5

> <PUBCHEM_CACTVS_HBOND_DONOR>
4

> <PUBCHEM_CACTVS_ROTATABLE_BOND>
1

> <PUBCHEM_CACTVS_SUBSKEYS>
AAADccBwOAAAAAAAAAAAAAAAAAAAAAAAAAAAAAAABgAAAAAAAAAAGgAACAAADRSggAIACAAAAgAIAACQCAAAAAAAAAAAAAEAAAABEBIAAAAAQAAFAAABAAHK7PTOAAAAAAAAAAAAAAAAAAAAAAAAAAAAAA==

> <PUBCHEM_IUPAC_OPENEYE_NAME>
3,4,6-trihydroxycycloheptanecarboxylic acid

> <PUBCHEM_IUPAC_CAS_NAME>
3,4,6-trihydroxy-1-cycloheptanecarboxylic acid

> <PUBCHEM_IUPAC_NAME_MARKUP>
3,4,6-trihydroxycycloheptane-1-carboxylic acid

> <PUBCHEM_IUPAC_NAME>
3,4,6-trihydroxycycloheptane-1-carboxylic acid

> <PUBCHEM_IUPAC_SYSTEMATIC_NAME>
3,4,6-tris(oxidanyl)cycloheptane-1-carboxylic acid

> <PUBCHEM_IUPAC_TRADITIONAL_NAME>
3,4,6-trihydroxycycloheptanecarboxylic acid

> <PUBCHEM_IUPAC_INCHI>
InChI=1S/C8H14O5/c9-5-1-4(8(12)13)2-6(10)7(11)3-5/h4-7,9-11H,1-3H2,(H,12,13)

> <PUBCHEM_IUPAC_INCHIKEY>
YTLLWCYJOLSQOH-UHFFFAOYSA-N

> <PUBCHEM_XLOGP3_AA>
-1.3

> <PUBCHEM_EXACT_MASS>
190.08412354

> <PUBCHEM_MOLECULAR_FORMULA>
C8H14O5

> <PUBCHEM_MOLECULAR_WEIGHT>
190.19

> <PUBCHEM_OPENEYE_CAN_SMILES>
C1C(CC(C(CC1O)O)O)C(=O)O

> <PUBCHEM_OPENEYE_ISO_SMILES>
C1C(CC(C(CC1O)O)O)C(=O)O

> <PUBCHEM_CACTVS_TPSA>
98

> <PUBCHEM_MONOISOTOPIC_WEIGHT>
190.08412354

> <PUBCHEM_TOTAL_CHARGE>
0

> <PUBCHEM_HEAVY_ATOM_COUNT>
13

> <PUBCHEM_ATOM_DEF_STEREO_COUNT>
0

> <PUBCHEM_ATOM_UDEF_STEREO_COUNT>
4

> <PUBCHEM_BOND_DEF_STEREO_COUNT>
0

> <PUBCHEM_BOND_UDEF_STEREO_COUNT>
0

> <PUBCHEM_ISOTOPIC_ATOM_COUNT>
0

> <PUBCHEM_COMPONENT_COUNT>
1

> <PUBCHEM_CACTVS_TAUTO_COUNT>
-1

> <PUBCHEM_COORDINATE_TYPE>
1
5
255

> <PUBCHEM_BONDANNOTATIONS>
8  1  3
10  2  3
11  3  3
6  13  3

$$$$
