 
  -OEChem-10192103372D

 61 60  0     0  0  0  0  0  0999 V2000
    2.5369    1.5304    0.0000 O   0  0  0  0  0  0  0  0  0  0  0  0
    3.4030    0.0303    0.0000 O   0  0  0  0  0  0  0  0  0  0  0  0
   19.8574    1.5304    0.0000 O   0  0  0  0  0  0  0  0  0  0  0  0
   18.9914    0.0303    0.0000 O   0  0  0  0  0  0  0  0  0  0  0  0
   16.9586   -1.6754    0.0000 O   0  0  0  0  0  0  0  0  0  0  0  0
   15.6317   -0.5620    0.0000 O   0  0  0  0  0  0  0  0  0  0  0  0
    9.4651    1.5304    0.0000 C   0  0  0  0  0  0  0  0  0  0  0  0
   10.3312    1.0304    0.0000 C   0  0  0  0  0  0  0  0  0  0  0  0
    8.5991    1.0304    0.0000 C   0  0  0  0  0  0  0  0  0  0  0  0
   11.1972    1.5304    0.0000 C   0  0  0  0  0  0  0  0  0  0  0  0
    7.7331    1.5304    0.0000 C   0  0  0  0  0  0  0  0  0  0  0  0
   12.0632    1.0304    0.0000 C   0  0  0  0  0  0  0  0  0  0  0  0
    6.8671    1.0304    0.0000 C   0  0  0  0  0  0  0  0  0  0  0  0
   12.9292    1.5304    0.0000 C   0  0  0  0  0  0  0  0  0  0  0  0
    6.0010    1.5304    0.0000 C   0  0  0  0  0  0  0  0  0  0  0  0
   13.7953    1.0304    0.0000 C   0  0  0  0  0  0  0  0  0  0  0  0
    5.1350    1.0304    0.0000 C   0  0  0  0  0  0  0  0  0  0  0  0
   14.6613    1.5304    0.0000 C   0  0  0  0  0  0  0  0  0  0  0  0
    4.2690    1.5304    0.0000 C   0  0  0  0  0  0  0  0  0  0  0  0
   15.5273    1.0304    0.0000 C   0  0  0  0  0  0  0  0  0  0  0  0
    3.4030    1.0304    0.0000 C   0  0  0  0  0  0  0  0  0  0  0  0
   16.3933    1.5304    0.0000 C   0  0  0  0  0  0  0  0  0  0  0  0
   17.2594    1.0304    0.0000 C   0  0  0  0  0  0  0  0  0  0  0  0
   18.1254    1.5304    0.0000 C   0  0  0  0  0  0  0  0  0  0  0  0
   17.2594    0.0303    0.0000 C   0  0  0  0  0  0  0  0  0  0  0  0
   18.9914    1.0304    0.0000 C   0  0  0  0  0  0  0  0  0  0  0  0
   16.6166   -0.7357    0.0000 C   0  0  0  0  0  0  0  0  0  0  0  0
    9.8637    2.0053    0.0000 H   0  0  0  0  0  0  0  0  0  0  0  0
    9.0666    2.0053    0.0000 H   0  0  0  0  0  0  0  0  0  0  0  0
    9.9326    0.5554    0.0000 H   0  0  0  0  0  0  0  0  0  0  0  0
   10.7297    0.5554    0.0000 H   0  0  0  0  0  0  0  0  0  0  0  0
    8.2006    0.5554    0.0000 H   0  0  0  0  0  0  0  0  0  0  0  0
    8.9976    0.5554    0.0000 H   0  0  0  0  0  0  0  0  0  0  0  0
   11.5957    2.0053    0.0000 H   0  0  0  0  0  0  0  0  0  0  0  0
   10.7987    2.0053    0.0000 H   0  0  0  0  0  0  0  0  0  0  0  0
    8.1316    2.0053    0.0000 H   0  0  0  0  0  0  0  0  0  0  0  0
    7.3346    2.0053    0.0000 H   0  0  0  0  0  0  0  0  0  0  0  0
   11.6647    0.5554    0.0000 H   0  0  0  0  0  0  0  0  0  0  0  0
   12.4617    0.5554    0.0000 H   0  0  0  0  0  0  0  0  0  0  0  0
    6.4685    0.5554    0.0000 H   0  0  0  0  0  0  0  0  0  0  0  0
    7.2656    0.5554    0.0000 H   0  0  0  0  0  0  0  0  0  0  0  0
   13.3278    2.0053    0.0000 H   0  0  0  0  0  0  0  0  0  0  0  0
   12.5307    2.0053    0.0000 H   0  0  0  0  0  0  0  0  0  0  0  0
    6.3996    2.0053    0.0000 H   0  0  0  0  0  0  0  0  0  0  0  0
    5.6025    2.0053    0.0000 H   0  0  0  0  0  0  0  0  0  0  0  0
   13.3967    0.5554    0.0000 H   0  0  0  0  0  0  0  0  0  0  0  0
   14.1938    0.5554    0.0000 H   0  0  0  0  0  0  0  0  0  0  0  0
    4.7365    0.5554    0.0000 H   0  0  0  0  0  0  0  0  0  0  0  0
    5.5335    0.5554    0.0000 H   0  0  0  0  0  0  0  0  0  0  0  0
   15.0598    2.0053    0.0000 H   0  0  0  0  0  0  0  0  0  0  0  0
   14.2628    2.0053    0.0000 H   0  0  0  0  0  0  0  0  0  0  0  0
    4.6675    2.0053    0.0000 H   0  0  0  0  0  0  0  0  0  0  0  0
    3.8705    2.0053    0.0000 H   0  0  0  0  0  0  0  0  0  0  0  0
   15.3154    0.4477    0.0000 H   0  0  0  0  0  0  0  0  0  0  0  0
   16.3933    2.1504    0.0000 H   0  0  0  0  0  0  0  0  0  0  0  0
   18.5239    2.0053    0.0000 H   0  0  0  0  0  0  0  0  0  0  0  0
   17.7269    2.0053    0.0000 H   0  0  0  0  0  0  0  0  0  0  0  0
    2.0000    1.2204    0.0000 H   0  0  0  0  0  0  0  0  0  0  0  0
   17.7963   -0.2797    0.0000 H   0  0  0  0  0  0  0  0  0  0  0  0
   20.3944    1.2204    0.0000 H   0  0  0  0  0  0  0  0  0  0  0  0
   16.5601   -2.1504    0.0000 H   0  0  0  0  0  0  0  0  0  0  0  0
  1 21  1  0  0  0  0
  1 58  1  0  0  0  0
  2 21  2  0  0  0  0
  3 26  1  0  0  0  0
  3 60  1  0  0  0  0
  4 26  2  0  0  0  0
  5 27  1  0  0  0  0
  5 61  1  0  0  0  0
  6 27  2  0  0  0  0
  7  8  1  0  0  0  0
  7  9  1  0  0  0  0
  7 28  1  0  0  0  0
  7 29  1  0  0  0  0
  8 10  1  0  0  0  0
  8 30  1  0  0  0  0
  8 31  1  0  0  0  0
  9 11  1  0  0  0  0
  9 32  1  0  0  0  0
  9 33  1  0  0  0  0
 10 12  1  0  0  0  0
 10 34  1  0  0  0  0
 10 35  1  0  0  0  0
 11 13  1  0  0  0  0
 11 36  1  0  0  0  0
 11 37  1  0  0  0  0
 12 14  1  0  0  0  0
 12 38  1  0  0  0  0
 12 39  1  0  0  0  0
 13 15  1  0  0  0  0
 13 40  1  0  0  0  0
 13 41  1  0  0  0  0
 14 16  1  0  0  0  0
 14 42  1  0  0  0  0
 14 43  1  0  0  0  0
 15 17  1  0  0  0  0
 15 44  1  0  0  0  0
 15 45  1  0  0  0  0
 16 18  1  0  0  0  0
 16 46  1  0  0  0  0
 16 47  1  0  0  0  0
 17 19  1  0  0  0  0
 17 48  1  0  0  0  0
 17 49  1  0  0  0  0
 18 20  1  0  0  0  0
 18 50  1  0  0  0  0
 18 51  1  0  0  0  0
 19 21  1  0  0  0  0
 19 52  1  0  0  0  0
 19 53  1  0  0  0  0
 20 22  2  0  0  0  0
 20 54  1  0  0  0  0
 22 23  1  0  0  0  0
 22 55  1  0  0  0  0
 23 24  1  0  0  0  0
 23 25  2  0  0  0  0
 24 26  1  0  0  0  0
 24 56  1  0  0  0  0
 24 57  1  0  0  0  0
 25 27  1  0  0  0  0
 25 59  1  0  0  0  0
M  END
> <PUBCHEM_COMPOUND_CID>
71618843

> <PUBCHEM_COMPOUND_CANONICALIZED>
1

> <PUBCHEM_CACTVS_COMPLEXITY>
493

> <PUBCHEM_CACTVS_HBOND_ACCEPTOR>
6

> <PUBCHEM_CACTVS_HBOND_DONOR>
3

> <PUBCHEM_CACTVS_ROTATABLE_BOND>
18

> <PUBCHEM_CACTVS_SUBSKEYS>
AAADcfB4OAAAAAAAAAAAAAAAAAAAAAAAAAAAAAAAAAAAAAAAAAAAGgAACAAADACAgAAACAAAAgCIAiDSCAAAAAAgAAAICAEAAEgIBBIAAQAAUAAEwAAIkQOIyKCAAAAAAAAAAAAAAAAAAAAAAAAAAAAAAA==

> <PUBCHEM_IUPAC_OPENEYE_NAME>
(2Z,4E)-3-(carboxymethyl)nonadeca-2,4-dienedioic acid

> <PUBCHEM_IUPAC_CAS_NAME>
(2Z,4E)-3-(carboxymethyl)nonadeca-2,4-dienedioic acid

> <PUBCHEM_IUPAC_NAME_MARKUP>
(2<I>Z</I>,4<I>E</I>)-3-(carboxymethyl)nonadeca-2,4-dienedioic acid

> <PUBCHEM_IUPAC_NAME>
(2Z,4E)-3-(carboxymethyl)nonadeca-2,4-dienedioic acid

> <PUBCHEM_IUPAC_SYSTEMATIC_NAME>
(2Z,4E)-3-(2-hydroxy-2-oxoethyl)nonadeca-2,4-dienedioic acid

> <PUBCHEM_IUPAC_TRADITIONAL_NAME>
(2Z,4E)-3-(carboxymethyl)nonadeca-2,4-dienedioic acid

> <PUBCHEM_IUPAC_INCHI>
InChI=1S/C21H34O6/c22-19(23)15-13-11-9-7-5-3-1-2-4-6-8-10-12-14-18(16-20(24)25)17-21(26)27/h12,14,16H,1-11,13,15,17H2,(H,22,23)(H,24,25)(H,26,27)/b14-12+,18-16+

> <PUBCHEM_IUPAC_INCHIKEY>
DGWYYJPNEGSBOV-IGPVVLDESA-N

> <PUBCHEM_XLOGP3_AA>
6.1

> <PUBCHEM_EXACT_MASS>
382.23553880

> <PUBCHEM_MOLECULAR_FORMULA>
C21H34O6

> <PUBCHEM_MOLECULAR_WEIGHT>
382.5

> <PUBCHEM_OPENEYE_CAN_SMILES>
C(CCCCCCC=CC(=CC(=O)O)CC(=O)O)CCCCCCC(=O)O

> <PUBCHEM_OPENEYE_ISO_SMILES>
C(CCCCCC/C=C/C(=C\C(=O)O)/CC(=O)O)CCCCCCC(=O)O

> <PUBCHEM_CACTVS_TPSA>
112

> <PUBCHEM_MONOISOTOPIC_WEIGHT>
382.23553880

> <PUBCHEM_TOTAL_CHARGE>
0

> <PUBCHEM_HEAVY_ATOM_COUNT>
27

> <PUBCHEM_ATOM_DEF_STEREO_COUNT>
0

> <PUBCHEM_ATOM_UDEF_STEREO_COUNT>
0

> <PUBCHEM_BOND_DEF_STEREO_COUNT>
2

> <PUBCHEM_BOND_UDEF_STEREO_COUNT>
0

> <PUBCHEM_ISOTOPIC_ATOM_COUNT>
0

> <PUBCHEM_COMPONENT_COUNT>
1

> <PUBCHEM_CACTVS_TAUTO_COUNT>
-1

> <PUBCHEM_COORDINATE_TYPE>
1
5
255

$$$$
