 
  -OEChem-10192103322D

 82 84  0     0  0  0  0  0  0999 V2000
    6.3301    0.5000    0.0000 O   0  0  0  0  0  0  0  0  0  0  0  0
    8.9282    4.0000    0.0000 O   0  0  0  0  0  0  0  0  0  0  0  0
    8.9282    8.0000    0.0000 O   0  0  0  0  0  0  0  0  0  0  0  0
    5.4641   -8.0000    0.0000 O   0  0  0  0  0  0  0  0  0  0  0  0
    6.3301   -3.5000    0.0000 O   0  0  0  0  0  0  0  0  0  0  0  0
   10.6603   11.0000    0.0000 O   0  0  0  0  0  0  0  0  0  0  0  0
    3.7320  -11.0000    0.0000 O   0  0  0  0  0  0  0  0  0  0  0  0
    7.1962    4.0000    0.0000 O   0  0  0  0  0  0  0  0  0  0  0  0
    4.5981   -3.5000    0.0000 O   0  0  0  0  0  0  0  0  0  0  0  0
   12.3923   11.0000    0.0000 O   0  0  0  0  0  0  0  0  0  0  0  0
    2.0000  -11.0000    0.0000 O   0  0  0  0  0  0  0  0  0  0  0  0
    7.1962    2.0000    0.0000 C   0  0  0  0  0  0  0  0  0  0  0  0
    8.0622    2.5000    0.0000 C   0  0  0  0  0  0  0  0  0  0  0  0
    7.1962    1.0000    0.0000 C   0  0  0  0  0  0  0  0  0  0  0  0
    9.7942    9.5000    0.0000 C   0  0  0  0  0  0  0  0  0  0  0  0
    8.0622    3.5000    0.0000 C   0  0  0  0  0  0  0  0  0  0  0  0
    4.5981   -9.5000    0.0000 C   0  0  0  0  0  0  0  0  0  0  0  0
    9.7942    8.5000    0.0000 C   0  0  0  0  0  0  0  0  0  0  0  0
    4.5981   -8.5000    0.0000 C   0  0  0  0  0  0  0  0  0  0  0  0
    6.3301   -0.5000    0.0000 C   0  0  0  0  0  0  0  0  0  0  0  0
    8.9282    5.0000    0.0000 C   0  0  0  0  0  0  0  0  0  0  0  0
    8.9282    7.0000    0.0000 C   0  0  0  0  0  0  0  0  0  0  0  0
   10.6603   10.0000    0.0000 C   0  0  0  0  0  0  0  0  0  0  0  0
    3.7320  -10.0000    0.0000 C   0  0  0  0  0  0  0  0  0  0  0  0
    5.4641   -7.0000    0.0000 C   0  0  0  0  0  0  0  0  0  0  0  0
    5.4641   -1.0000    0.0000 C   0  0  0  0  0  0  0  0  0  0  0  0
    7.1962   -1.0000    0.0000 C   0  0  0  0  0  0  0  0  0  0  0  0
    9.7942    5.5000    0.0000 C   0  0  0  0  0  0  0  0  0  0  0  0
    8.0622    5.5000    0.0000 C   0  0  0  0  0  0  0  0  0  0  0  0
    9.7942    6.5000    0.0000 C   0  0  0  0  0  0  0  0  0  0  0  0
    8.0622    6.5000    0.0000 C   0  0  0  0  0  0  0  0  0  0  0  0
    6.3301   -2.5000    0.0000 C   0  0  0  0  0  0  0  0  0  0  0  0
    5.4641   -5.0000    0.0000 C   0  0  0  0  0  0  0  0  0  0  0  0
    5.4641   -2.0000    0.0000 C   0  0  0  0  0  0  0  0  0  0  0  0
    7.1962   -2.0000    0.0000 C   0  0  0  0  0  0  0  0  0  0  0  0
    4.5981   -6.5000    0.0000 C   0  0  0  0  0  0  0  0  0  0  0  0
    6.3301   -6.5000    0.0000 C   0  0  0  0  0  0  0  0  0  0  0  0
    4.5981   -5.5000    0.0000 C   0  0  0  0  0  0  0  0  0  0  0  0
    6.3301   -5.5000    0.0000 C   0  0  0  0  0  0  0  0  0  0  0  0
    5.4641   -4.0000    0.0000 C   0  0  0  0  0  0  0  0  0  0  0  0
   11.5263   11.5000    0.0000 C   0  0  0  0  0  0  0  0  0  0  0  0
    2.8660  -11.5000    0.0000 C   0  0  0  0  0  0  0  0  0  0  0  0
   11.5263   12.5000    0.0000 C   0  0  0  0  0  0  0  0  0  0  0  0
    2.8660  -12.5000    0.0000 C   0  0  0  0  0  0  0  0  0  0  0  0
   12.3923   13.0000    0.0000 C   0  0  0  0  0  0  0  0  0  0  0  0
    2.0000  -13.0000    0.0000 C   0  0  0  0  0  0  0  0  0  0  0  0
    6.9841    2.5826    0.0000 H   0  0  0  0  0  0  0  0  0  0  0  0
    6.5856    1.8923    0.0000 H   0  0  0  0  0  0  0  0  0  0  0  0
    8.2742    1.9174    0.0000 H   0  0  0  0  0  0  0  0  0  0  0  0
    8.6728    2.6077    0.0000 H   0  0  0  0  0  0  0  0  0  0  0  0
    7.4082    0.4174    0.0000 H   0  0  0  0  0  0  0  0  0  0  0  0
    7.8067    1.1077    0.0000 H   0  0  0  0  0  0  0  0  0  0  0  0
    9.5822   10.0826    0.0000 H   0  0  0  0  0  0  0  0  0  0  0  0
    9.1836    9.3923    0.0000 H   0  0  0  0  0  0  0  0  0  0  0  0
    4.8101  -10.0826    0.0000 H   0  0  0  0  0  0  0  0  0  0  0  0
    5.2087   -9.3923    0.0000 H   0  0  0  0  0  0  0  0  0  0  0  0
   10.0063    7.9174    0.0000 H   0  0  0  0  0  0  0  0  0  0  0  0
   10.4048    8.6077    0.0000 H   0  0  0  0  0  0  0  0  0  0  0  0
    4.3860   -7.9174    0.0000 H   0  0  0  0  0  0  0  0  0  0  0  0
    3.9875   -8.6077    0.0000 H   0  0  0  0  0  0  0  0  0  0  0  0
   10.8723    9.4174    0.0000 H   0  0  0  0  0  0  0  0  0  0  0  0
   11.2708   10.1077    0.0000 H   0  0  0  0  0  0  0  0  0  0  0  0
    3.5200   -9.4174    0.0000 H   0  0  0  0  0  0  0  0  0  0  0  0
    3.1215  -10.1077    0.0000 H   0  0  0  0  0  0  0  0  0  0  0  0
    4.9272   -0.6900    0.0000 H   0  0  0  0  0  0  0  0  0  0  0  0
    7.7331   -0.6900    0.0000 H   0  0  0  0  0  0  0  0  0  0  0  0
   10.3312    5.1900    0.0000 H   0  0  0  0  0  0  0  0  0  0  0  0
    7.5252    5.1900    0.0000 H   0  0  0  0  0  0  0  0  0  0  0  0
   10.3312    6.8100    0.0000 H   0  0  0  0  0  0  0  0  0  0  0  0
    7.5252    6.8100    0.0000 H   0  0  0  0  0  0  0  0  0  0  0  0
    4.9272   -2.3100    0.0000 H   0  0  0  0  0  0  0  0  0  0  0  0
    7.7331   -2.3100    0.0000 H   0  0  0  0  0  0  0  0  0  0  0  0
    4.0611   -6.8100    0.0000 H   0  0  0  0  0  0  0  0  0  0  0  0
    6.8671   -6.8100    0.0000 H   0  0  0  0  0  0  0  0  0  0  0  0
    4.0611   -5.1900    0.0000 H   0  0  0  0  0  0  0  0  0  0  0  0
    6.8671   -5.1900    0.0000 H   0  0  0  0  0  0  0  0  0  0  0  0
   10.9893   12.8100    0.0000 H   0  0  0  0  0  0  0  0  0  0  0  0
    3.4030  -12.8100    0.0000 H   0  0  0  0  0  0  0  0  0  0  0  0
   12.9292   12.6900    0.0000 H   0  0  0  0  0  0  0  0  0  0  0  0
   12.3923   13.6200    0.0000 H   0  0  0  0  0  0  0  0  0  0  0  0
    1.4631  -12.6900    0.0000 H   0  0  0  0  0  0  0  0  0  0  0  0
    2.0000  -13.6200    0.0000 H   0  0  0  0  0  0  0  0  0  0  0  0
  1 14  1  0  0  0  0
  1 20  1  0  0  0  0
  2 16  1  0  0  0  0
  2 21  1  0  0  0  0
  3 18  1  0  0  0  0
  3 22  1  0  0  0  0
  4 19  1  0  0  0  0
  4 25  1  0  0  0  0
  5 32  1  0  0  0  0
  5 40  1  0  0  0  0
  6 23  1  0  0  0  0
  6 41  1  0  0  0  0
  7 24  1  0  0  0  0
  7 42  1  0  0  0  0
  8 16  2  0  0  0  0
  9 40  2  0  0  0  0
 10 41  2  0  0  0  0
 11 42  2  0  0  0  0
 12 13  1  0  0  0  0
 12 14  1  0  0  0  0
 12 47  1  0  0  0  0
 12 48  1  0  0  0  0
 13 16  1  0  0  0  0
 13 49  1  0  0  0  0
 13 50  1  0  0  0  0
 14 51  1  0  0  0  0
 14 52  1  0  0  0  0
 15 18  1  0  0  0  0
 15 23  1  0  0  0  0
 15 53  1  0  0  0  0
 15 54  1  0  0  0  0
 17 19  1  0  0  0  0
 17 24  1  0  0  0  0
 17 55  1  0  0  0  0
 17 56  1  0  0  0  0
 18 57  1  0  0  0  0
 18 58  1  0  0  0  0
 19 59  1  0  0  0  0
 19 60  1  0  0  0  0
 20 26  2  0  0  0  0
 20 27  1  0  0  0  0
 21 28  2  0  0  0  0
 21 29  1  0  0  0  0
 22 30  2  0  0  0  0
 22 31  1  0  0  0  0
 23 61  1  0  0  0  0
 23 62  1  0  0  0  0
 24 63  1  0  0  0  0
 24 64  1  0  0  0  0
 25 36  2  0  0  0  0
 25 37  1  0  0  0  0
 26 34  1  0  0  0  0
 26 65  1  0  0  0  0
 27 35  2  0  0  0  0
 27 66  1  0  0  0  0
 28 30  1  0  0  0  0
 28 67  1  0  0  0  0
 29 31  2  0  0  0  0
 29 68  1  0  0  0  0
 30 69  1  0  0  0  0
 31 70  1  0  0  0  0
 32 34  2  0  0  0  0
 32 35  1  0  0  0  0
 33 38  2  0  0  0  0
 33 39  1  0  0  0  0
 33 40  1  0  0  0  0
 34 71  1  0  0  0  0
 35 72  1  0  0  0  0
 36 38  1  0  0  0  0
 36 73  1  0  0  0  0
 37 39  2  0  0  0  0
 37 74  1  0  0  0  0
 38 75  1  0  0  0  0
 39 76  1  0  0  0  0
 41 43  1  0  0  0  0
 42 44  1  0  0  0  0
 43 45  2  0  0  0  0
 43 77  1  0  0  0  0
 44 46  2  0  0  0  0
 44 78  1  0  0  0  0
 45 79  1  0  0  0  0
 45 80  1  0  0  0  0
 46 81  1  0  0  0  0
 46 82  1  0  0  0  0
M  END
> <PUBCHEM_COMPOUND_CID>
20724211

> <PUBCHEM_COMPOUND_CANONICALIZED>
1

> <PUBCHEM_CACTVS_COMPLEXITY>
942

> <PUBCHEM_CACTVS_HBOND_ACCEPTOR>
11

> <PUBCHEM_CACTVS_HBOND_DONOR>
0

> <PUBCHEM_CACTVS_ROTATABLE_BOND>
24

> <PUBCHEM_CACTVS_SUBSKEYS>
AAADcfB8PAAAAAAAAAAAAAAAAAAAAAAAAAAwYMAAAAAAAAABUAAAGgAAAAAADASgmAIwDoAABACIAiDSCAACCAAkIAAIiAEGCMgMJjKENRqCOyClwBEIqYfK7CzOIQAAAAAAAABCAAAAAAAAAAAAAAAAAA==

> <PUBCHEM_IUPAC_OPENEYE_NAME>
[4-[4-oxo-4-[4-(3-prop-2-enoyloxypropoxy)phenoxy]butoxy]phenyl] 4-(3-prop-2-enoyloxypropoxy)benzoate

> <PUBCHEM_IUPAC_CAS_NAME>
4-[3-(1-oxoprop-2-enoxy)propoxy]benzoic acid [4-[4-oxo-4-[4-[3-(1-oxoprop-2-enoxy)propoxy]phenoxy]butoxy]phenyl] ester

> <PUBCHEM_IUPAC_NAME_MARKUP>
[4-[4-oxo-4-[4-(3-prop-2-enoyloxypropoxy)phenoxy]butoxy]phenyl] 4-(3-prop-2-enoyloxypropoxy)benzoate

> <PUBCHEM_IUPAC_NAME>
[4-[4-oxo-4-[4-(3-prop-2-enoyloxypropoxy)phenoxy]butoxy]phenyl] 4-(3-prop-2-enoyloxypropoxy)benzoate

> <PUBCHEM_IUPAC_SYSTEMATIC_NAME>
[4-[4-oxidanylidene-4-[4-(3-prop-2-enoyloxypropoxy)phenoxy]butoxy]phenyl] 4-(3-prop-2-enoyloxypropoxy)benzoate

> <PUBCHEM_IUPAC_TRADITIONAL_NAME>
4-(3-acryloyloxypropoxy)benzoic acid [4-[4-[4-(3-acryloyloxypropoxy)phenoxy]-4-keto-butoxy]phenyl] ester

> <PUBCHEM_IUPAC_INCHI>
InChI=1S/C35H36O11/c1-3-32(36)43-24-6-22-41-27-11-9-26(10-12-27)35(39)46-31-19-15-28(16-20-31)40-21-5-8-34(38)45-30-17-13-29(14-18-30)42-23-7-25-44-33(37)4-2/h3-4,9-20H,1-2,5-8,21-25H2

> <PUBCHEM_IUPAC_INCHIKEY>
JHVZWFKABXNLQJ-UHFFFAOYSA-N

> <PUBCHEM_XLOGP3_AA>
6.7

> <PUBCHEM_EXACT_MASS>
632.22576196

> <PUBCHEM_MOLECULAR_FORMULA>
C35H36O11

> <PUBCHEM_MOLECULAR_WEIGHT>
632.7

> <PUBCHEM_OPENEYE_CAN_SMILES>
C=CC(=O)OCCCOC1=CC=C(C=C1)C(=O)OC2=CC=C(C=C2)OCCCC(=O)OC3=CC=C(C=C3)OCCCOC(=O)C=C

> <PUBCHEM_OPENEYE_ISO_SMILES>
C=CC(=O)OCCCOC1=CC=C(C=C1)C(=O)OC2=CC=C(C=C2)OCCCC(=O)OC3=CC=C(C=C3)OCCCOC(=O)C=C

> <PUBCHEM_CACTVS_TPSA>
133

> <PUBCHEM_MONOISOTOPIC_WEIGHT>
632.22576196

> <PUBCHEM_TOTAL_CHARGE>
0

> <PUBCHEM_HEAVY_ATOM_COUNT>
46

> <PUBCHEM_ATOM_DEF_STEREO_COUNT>
0

> <PUBCHEM_ATOM_UDEF_STEREO_COUNT>
0

> <PUBCHEM_BOND_DEF_STEREO_COUNT>
0

> <PUBCHEM_BOND_UDEF_STEREO_COUNT>
0

> <PUBCHEM_ISOTOPIC_ATOM_COUNT>
0

> <PUBCHEM_COMPONENT_COUNT>
1

> <PUBCHEM_CACTVS_TAUTO_COUNT>
-1

> <PUBCHEM_COORDINATE_TYPE>
1
5
255

> <PUBCHEM_BONDANNOTATIONS>
20  26  8
20  27  8
21  28  8
21  29  8
22  30  8
22  31  8
25  36  8
25  37  8
26  34  8
27  35  8
28  30  8
29  31  8
32  34  8
32  35  8
33  38  8
33  39  8
36  38  8
37  39  8

$$$$
