 
  -OEChem-10192104172D

 68 72  0     1  0  0  0  0  0999 V2000
    9.7082   -0.9550    0.0000 O   0  0  0  0  0  0  0  0  0  0  0  0
    9.0532    1.7267    0.0000 O   0  0  0  0  0  0  0  0  0  0  0  0
    5.9670   -0.5187    0.0000 O   0  0  0  0  0  0  0  0  0  0  0  0
    6.8671   -2.0429    0.0000 O   0  0  0  0  0  0  0  0  0  0  0  0
    8.5136   -2.5590    0.0000 O   0  0  0  0  0  0  0  0  0  0  0  0
   10.3537    2.8707    0.0000 O   0  0  0  0  0  0  0  0  0  0  0  0
    5.1350   -2.0429    0.0000 O   0  0  0  0  0  0  0  0  0  0  0  0
   10.3742    0.2250    0.0000 O   0  0  0  0  0  0  0  0  0  0  0  0
   12.3352    0.6182    0.0000 O   0  0  0  0  0  0  0  0  0  0  0  0
    6.8671   -4.0429    0.0000 O   0  0  0  0  0  0  0  0  0  0  0  0
   12.9752    2.5130    0.0000 O   0  0  0  0  0  0  0  0  0  0  0  0
    5.1350   -5.0429    0.0000 O   0  0  0  0  0  0  0  0  0  0  0  0
    3.4030   -4.0429    0.0000 O   0  0  0  0  0  0  0  0  0  0  0  0
   10.9937    4.7655    0.0000 O   0  0  0  0  0  0  0  0  0  0  0  0
    2.5369   -2.5429    0.0000 O   0  0  0  0  0  0  0  0  0  0  0  0
    8.7145   -0.8386    0.0000 C   0  0  3  0  0  0  0  0  0  0  0  0
    9.3116   -0.0365    0.0000 C   0  0  3  0  0  0  0  0  0  0  0  0
    7.7671   -0.5187    0.0000 C   0  0  2  0  0  0  0  0  0  0  0  0
    8.7333    0.7793    0.0000 C   0  0  2  0  0  0  0  0  0  0  0  0
    7.7787    0.4813    0.0000 C   0  0  2  0  0  0  0  0  0  0  0  0
    8.1174   -1.6408    0.0000 C   0  0  0  0  0  0  0  0  0  0  0  0
    6.8671   -1.0429    0.0000 C   0  0  1  0  0  0  0  0  0  0  0  0
    6.8910    1.0262    0.0000 C   0  0  0  0  0  0  0  0  0  0  0  0
    5.9790    0.5229    0.0000 C   0  0  0  0  0  0  0  0  0  0  0  0
   10.0337    1.9233    0.0000 C   0  0  2  0  0  0  0  0  0  0  0  0
    6.0010   -2.5429    0.0000 C   0  0  2  0  0  0  0  0  0  0  0  0
   10.6942    1.1724    0.0000 C   0  0  1  0  0  0  0  0  0  0  0  0
   11.6747    1.3690    0.0000 C   0  0  2  0  0  0  0  0  0  0  0  0
    6.0010   -3.5429    0.0000 C   0  0  1  0  0  0  0  0  0  0  0  0
   11.3342    3.0673    0.0000 C   0  0  1  0  0  0  0  0  0  0  0  0
   11.9947    2.3165    0.0000 C   0  0  2  0  0  0  0  0  0  0  0  0
    5.1350   -4.0429    0.0000 C   0  0  1  0  0  0  0  0  0  0  0  0
    4.2690   -2.5429    0.0000 C   0  0  1  0  0  0  0  0  0  0  0  0
    4.2690   -3.5429    0.0000 C   0  0  1  0  0  0  0  0  0  0  0  0
   11.6542    4.0147    0.0000 C   0  0  0  0  0  0  0  0  0  0  0  0
    3.4030   -2.0429    0.0000 C   0  0  0  0  0  0  0  0  0  0  0  0
    9.8521    0.2674    0.0000 H   0  0  0  0  0  0  0  0  0  0  0  0
    7.8527   -1.3643    0.0000 H   0  0  0  0  0  0  0  0  0  0  0  0
    9.3467    0.8692    0.0000 H   0  0  0  0  0  0  0  0  0  0  0  0
    7.8838    1.3248    0.0000 H   0  0  0  0  0  0  0  0  0  0  0  0
    7.6919   -1.1899    0.0000 H   0  0  0  0  0  0  0  0  0  0  0  0
    7.5995   -1.9816    0.0000 H   0  0  0  0  0  0  0  0  0  0  0  0
    7.4046   -1.3519    0.0000 H   0  0  0  0  0  0  0  0  0  0  0  0
    6.9053    1.6461    0.0000 H   0  0  0  0  0  0  0  0  0  0  0  0
    5.4470    0.8411    0.0000 H   0  0  0  0  0  0  0  0  0  0  0  0
    9.8353    1.3359    0.0000 H   0  0  0  0  0  0  0  0  0  0  0  0
    9.1294   -2.6309    0.0000 H   0  0  0  0  0  0  0  0  0  0  0  0
    6.0010   -1.9229    0.0000 H   0  0  0  0  0  0  0  0  0  0  0  0
   11.1037    0.7069    0.0000 H   0  0  0  0  0  0  0  0  0  0  0  0
   12.2826    1.4909    0.0000 H   0  0  0  0  0  0  0  0  0  0  0  0
    6.0010   -4.1629    0.0000 H   0  0  0  0  0  0  0  0  0  0  0  0
   10.9247    3.5328    0.0000 H   0  0  0  0  0  0  0  0  0  0  0  0
   12.1931    2.9039    0.0000 H   0  0  0  0  0  0  0  0  0  0  0  0
    4.5981   -4.3529    0.0000 H   0  0  0  0  0  0  0  0  0  0  0  0
    4.2690   -1.9229    0.0000 H   0  0  0  0  0  0  0  0  0  0  0  0
    4.2690   -4.1629    0.0000 H   0  0  0  0  0  0  0  0  0  0  0  0
   10.7837   -0.2405    0.0000 H   0  0  0  0  0  0  0  0  0  0  0  0
   12.1982    3.7173    0.0000 H   0  0  0  0  0  0  0  0  0  0  0  0
   12.0415    4.4988    0.0000 H   0  0  0  0  0  0  0  0  0  0  0  0
   12.9431    0.7401    0.0000 H   0  0  0  0  0  0  0  0  0  0  0  0
    6.8671   -4.6629    0.0000 H   0  0  0  0  0  0  0  0  0  0  0  0
    3.8015   -1.5680    0.0000 H   0  0  0  0  0  0  0  0  0  0  0  0
    3.0044   -1.5680    0.0000 H   0  0  0  0  0  0  0  0  0  0  0  0
   13.1736    3.1004    0.0000 H   0  0  0  0  0  0  0  0  0  0  0  0
    4.5981   -5.3529    0.0000 H   0  0  0  0  0  0  0  0  0  0  0  0
    3.4030   -4.6629    0.0000 H   0  0  0  0  0  0  0  0  0  0  0  0
   11.1921    5.3529    0.0000 H   0  0  0  0  0  0  0  0  0  0  0  0
    2.0000   -2.2329    0.0000 H   0  0  0  0  0  0  0  0  0  0  0  0
  1 16  1  0  0  0  0
  1 17  1  0  0  0  0
 19  2  1  6  0  0  0
 25  2  1  6  0  0  0
  3 22  1  0  0  0  0
  3 24  1  0  0  0  0
 22  4  1  6  0  0  0
 26  4  1  1  0  0  0
  5 21  1  0  0  0  0
  5 47  1  0  0  0  0
  6 25  1  0  0  0  0
  6 30  1  0  0  0  0
  7 26  1  0  0  0  0
  7 33  1  0  0  0  0
 27  8  1  1  0  0  0
  8 57  1  0  0  0  0
 28  9  1  6  0  0  0
  9 60  1  0  0  0  0
 29 10  1  6  0  0  0
 10 61  1  0  0  0  0
 31 11  1  6  0  0  0
 11 64  1  0  0  0  0
 32 12  1  6  0  0  0
 12 65  1  0  0  0  0
 34 13  1  6  0  0  0
 13 66  1  0  0  0  0
 14 35  1  0  0  0  0
 14 67  1  0  0  0  0
 15 36  1  0  0  0  0
 15 68  1  0  0  0  0
 16 17  1  0  0  0  0
 16 18  1  0  0  0  0
 16 21  1  0  0  0  0
 17 19  1  0  0  0  0
 17 37  1  0  0  0  0
 18 20  1  0  0  0  0
 18 22  1  0  0  0  0
 18 38  1  6  0  0  0
 19 20  1  0  0  0  0
 19 39  1  0  0  0  0
 20 23  1  0  0  0  0
 20 40  1  6  0  0  0
 21 41  1  0  0  0  0
 21 42  1  0  0  0  0
 22 43  1  0  0  0  0
 23 24  2  0  0  0  0
 23 44  1  0  0  0  0
 24 45  1  0  0  0  0
 25 27  1  0  0  0  0
 25 46  1  0  0  0  0
 26 29  1  0  0  0  0
 26 48  1  0  0  0  0
 27 28  1  0  0  0  0
 27 49  1  0  0  0  0
 28 31  1  0  0  0  0
 28 50  1  0  0  0  0
 29 32  1  0  0  0  0
 29 51  1  0  0  0  0
 30 31  1  0  0  0  0
 30 35  1  6  0  0  0
 30 52  1  0  0  0  0
 31 53  1  0  0  0  0
 32 34  1  0  0  0  0
 32 54  1  0  0  0  0
 33 34  1  0  0  0  0
 33 36  1  1  0  0  0
 33 55  1  0  0  0  0
 34 56  1  0  0  0  0
 35 58  1  0  0  0  0
 35 59  1  0  0  0  0
 36 62  1  0  0  0  0
 36 63  1  0  0  0  0
M  END
> <PUBCHEM_COMPOUND_CID>
23304587

> <PUBCHEM_COMPOUND_CANONICALIZED>
1

> <PUBCHEM_CACTVS_COMPLEXITY>
814

> <PUBCHEM_CACTVS_HBOND_ACCEPTOR>
15

> <PUBCHEM_CACTVS_HBOND_DONOR>
9

> <PUBCHEM_CACTVS_ROTATABLE_BOND>
7

> <PUBCHEM_CACTVS_SUBSKEYS>
AAADcfB4PAAAAAAAAAAAAAAAEgAAAYAAAAAkSJEAAAAAAEAAAAAAGgAACAAADVSwgAMACAAABgCAACBCAAAACAAgIAAIAAAAAAgREAIAAQAiQAAFwAAHAAHA4DwOgAAAAAAAAAAAAAAAAAAAAYQADCAAAA==

> <PUBCHEM_IUPAC_OPENEYE_NAME>
(2R,3R,4S,5R,6R)-2-(hydroxymethyl)-6-[[(1S,5S,6R,10S)-2-(hydroxymethyl)-10-[(2S,3R,4R,5S,6R)-3,4,5-trihydroxy-6-(hydroxymethyl)tetrahydropyran-2-yl]oxy-3,9-dioxatricyclo[4.4.0.02,4]dec-7-en-5-yl]oxy]tetrahydropyran-3,4,5-triol

> <PUBCHEM_IUPAC_CAS_NAME>
(2R,3R,4S,5R,6R)-2-(hydroxymethyl)-6-[[(1S,5S,6R,10S)-2-(hydroxymethyl)-10-[[(2S,3R,4R,5S,6R)-3,4,5-trihydroxy-6-(hydroxymethyl)-2-oxanyl]oxy]-3,9-dioxatricyclo[4.4.0.02,4]dec-7-en-5-yl]oxy]oxane-3,4,5-triol

> <PUBCHEM_IUPAC_NAME_MARKUP>
(2<I>R</I>,3<I>R</I>,4<I>S</I>,5<I>R</I>,6<I>R</I>)-2-(hydroxymethyl)-6-[[(1<I>S</I>,5<I>S</I>,6<I>R</I>,10<I>S</I>)-2-(hydroxymethyl)-10-[(2<I>S</I>,3<I>R</I>,4<I>R</I>,5<I>S</I>,6<I>R</I>)-3,4,5-trihydroxy-6-(hydroxymethyl)oxan-2-yl]oxy-3,9-dioxatricyclo[4.4.0.0<SUP>2,4</SUP>]dec-7-en-5-yl]oxy]oxane-3,4,5-triol

> <PUBCHEM_IUPAC_NAME>
(2R,3R,4S,5R,6R)-2-(hydroxymethyl)-6-[[(1S,5S,6R,10S)-2-(hydroxymethyl)-10-[(2S,3R,4R,5S,6R)-3,4,5-trihydroxy-6-(hydroxymethyl)oxan-2-yl]oxy-3,9-dioxatricyclo[4.4.0.02,4]dec-7-en-5-yl]oxy]oxane-3,4,5-triol

> <PUBCHEM_IUPAC_SYSTEMATIC_NAME>
(2R,3R,4S,5R,6R)-2-(hydroxymethyl)-6-[[(1S,5S,6R,10S)-2-(hydroxymethyl)-10-[(2S,3R,4R,5S,6R)-6-(hydroxymethyl)-3,4,5-tris(oxidanyl)oxan-2-yl]oxy-3,9-dioxatricyclo[4.4.0.02,4]dec-7-en-5-yl]oxy]oxane-3,4,5-triol

> <PUBCHEM_IUPAC_TRADITIONAL_NAME>
(2R,3R,4S,5R,6R)-2-methylol-6-[[(1S,5S,6R,10S)-2-methylol-10-[(2S,3R,4R,5S,6R)-3,4,5-trihydroxy-6-methylol-tetrahydropyran-2-yl]oxy-3,9-dioxatricyclo[4.4.0.02,4]dec-7-en-5-yl]oxy]tetrahydropyran-3,4,5-triol

> <PUBCHEM_IUPAC_INCHI>
InChI=1S/C21H32O15/c22-3-7-10(25)12(27)14(29)19(32-7)34-16-6-1-2-31-18(9(6)21(5-24)17(16)36-21)35-20-15(30)13(28)11(26)8(4-23)33-20/h1-2,6-20,22-30H,3-5H2/t6-,7-,8-,9-,10+,11-,12+,13-,14-,15-,16+,17?,18+,19+,20+,21?/m1/s1

> <PUBCHEM_IUPAC_INCHIKEY>
DLYKKFLQWHNOKY-XSQBUTOJSA-N

> <PUBCHEM_XLOGP3_AA>
-4.8

> <PUBCHEM_EXACT_MASS>
524.17412031

> <PUBCHEM_MOLECULAR_FORMULA>
C21H32O15

> <PUBCHEM_MOLECULAR_WEIGHT>
524.5

> <PUBCHEM_OPENEYE_CAN_SMILES>
C1=COC(C2C1C(C3C2(O3)CO)OC4C(C(C(C(O4)CO)O)O)O)OC5C(C(C(C(O5)CO)O)O)O

> <PUBCHEM_OPENEYE_ISO_SMILES>
C1=CO[C@H]([C@H]2[C@@H]1[C@@H](C3C2(O3)CO)O[C@H]4[C@@H]([C@H]([C@H]([C@H](O4)CO)O)O)O)O[C@H]5[C@@H]([C@@H]([C@@H]([C@H](O5)CO)O)O)O

> <PUBCHEM_CACTVS_TPSA>
241

> <PUBCHEM_MONOISOTOPIC_WEIGHT>
524.17412031

> <PUBCHEM_TOTAL_CHARGE>
0

> <PUBCHEM_HEAVY_ATOM_COUNT>
36

> <PUBCHEM_ATOM_DEF_STEREO_COUNT>
14

> <PUBCHEM_ATOM_UDEF_STEREO_COUNT>
2

> <PUBCHEM_BOND_DEF_STEREO_COUNT>
0

> <PUBCHEM_BOND_UDEF_STEREO_COUNT>
0

> <PUBCHEM_ISOTOPIC_ATOM_COUNT>
0

> <PUBCHEM_COMPONENT_COUNT>
1

> <PUBCHEM_CACTVS_TAUTO_COUNT>
-1

> <PUBCHEM_COORDINATE_TYPE>
1
5
255

> <PUBCHEM_BONDANNOTATIONS>
17  1  3
29  10  6
31  11  6
32  12  6
34  13  6
16  21  3
18  38  6
19  2  6
25  2  6
20  40  6
30  35  6
33  36  5
22  4  6
26  4  5
27  8  5
28  9  6

$$$$
