 
  -OEChem-10192103262D

 42 43  0     0  0  0  0  0  0999 V2000
    3.4030   -1.2500    0.0000 O   0  0  0  0  0  0  0  0  0  0  0  0
    7.7331    1.2500    0.0000 O   0  0  0  0  0  0  0  0  0  0  0  0
    2.5369   -2.7500    0.0000 O   0  0  0  0  0  0  0  0  0  0  0  0
    8.5991    2.7500    0.0000 O   0  0  0  0  0  0  0  0  0  0  0  0
    4.2690   -5.7500    0.0000 O   0  0  0  0  0  0  0  0  0  0  0  0
    6.8671    5.7500    0.0000 O   0  0  0  0  0  0  0  0  0  0  0  0
    5.1350   -0.2500    0.0000 C   0  0  0  0  0  0  0  0  0  0  0  0
    6.0010    0.2500    0.0000 C   0  0  0  0  0  0  0  0  0  0  0  0
    5.1350   -1.2500    0.0000 C   0  0  0  0  0  0  0  0  0  0  0  0
    6.0010    1.2500    0.0000 C   0  0  0  0  0  0  0  0  0  0  0  0
    4.2690   -1.7500    0.0000 C   0  0  0  0  0  0  0  0  0  0  0  0
    6.8671    1.7500    0.0000 C   0  0  0  0  0  0  0  0  0  0  0  0
    4.2690   -2.7500    0.0000 C   0  0  0  0  0  0  0  0  0  0  0  0
    6.8671    2.7500    0.0000 C   0  0  0  0  0  0  0  0  0  0  0  0
    3.4030   -3.2500    0.0000 C   0  0  0  0  0  0  0  0  0  0  0  0
    7.7331    3.2500    0.0000 C   0  0  0  0  0  0  0  0  0  0  0  0
    5.1350   -3.2500    0.0000 C   0  0  0  0  0  0  0  0  0  0  0  0
    6.0010    3.2500    0.0000 C   0  0  0  0  0  0  0  0  0  0  0  0
    3.4030   -4.2500    0.0000 C   0  0  0  0  0  0  0  0  0  0  0  0
    7.7331    4.2500    0.0000 C   0  0  0  0  0  0  0  0  0  0  0  0
    5.1350   -4.2500    0.0000 C   0  0  0  0  0  0  0  0  0  0  0  0
    6.0010    4.2500    0.0000 C   0  0  0  0  0  0  0  0  0  0  0  0
    4.2690   -4.7500    0.0000 C   0  0  0  0  0  0  0  0  0  0  0  0
    6.8671    4.7500    0.0000 C   0  0  0  0  0  0  0  0  0  0  0  0
    4.9230    0.3326    0.0000 H   0  0  0  0  0  0  0  0  0  0  0  0
    4.5244   -0.3577    0.0000 H   0  0  0  0  0  0  0  0  0  0  0  0
    6.2131   -0.3326    0.0000 H   0  0  0  0  0  0  0  0  0  0  0  0
    6.6116    0.3577    0.0000 H   0  0  0  0  0  0  0  0  0  0  0  0
    5.3471   -1.8326    0.0000 H   0  0  0  0  0  0  0  0  0  0  0  0
    5.7456   -1.1423    0.0000 H   0  0  0  0  0  0  0  0  0  0  0  0
    5.7890    1.8326    0.0000 H   0  0  0  0  0  0  0  0  0  0  0  0
    5.3905    1.1423    0.0000 H   0  0  0  0  0  0  0  0  0  0  0  0
    5.6720   -2.9400    0.0000 H   0  0  0  0  0  0  0  0  0  0  0  0
    5.4641    2.9400    0.0000 H   0  0  0  0  0  0  0  0  0  0  0  0
    2.8660   -4.5600    0.0000 H   0  0  0  0  0  0  0  0  0  0  0  0
    8.2700    4.5600    0.0000 H   0  0  0  0  0  0  0  0  0  0  0  0
    5.6720   -4.5600    0.0000 H   0  0  0  0  0  0  0  0  0  0  0  0
    5.4641    4.5600    0.0000 H   0  0  0  0  0  0  0  0  0  0  0  0
    2.0000   -3.0600    0.0000 H   0  0  0  0  0  0  0  0  0  0  0  0
    9.1360    3.0600    0.0000 H   0  0  0  0  0  0  0  0  0  0  0  0
    4.8059   -6.0600    0.0000 H   0  0  0  0  0  0  0  0  0  0  0  0
    6.3301    6.0600    0.0000 H   0  0  0  0  0  0  0  0  0  0  0  0
  1 11  2  0  0  0  0
  2 12  2  0  0  0  0
  3 15  1  0  0  0  0
  3 39  1  0  0  0  0
  4 16  1  0  0  0  0
  4 40  1  0  0  0  0
  5 23  1  0  0  0  0
  5 41  1  0  0  0  0
  6 24  1  0  0  0  0
  6 42  1  0  0  0  0
  7  8  1  0  0  0  0
  7  9  1  0  0  0  0
  7 25  1  0  0  0  0
  7 26  1  0  0  0  0
  8 10  1  0  0  0  0
  8 27  1  0  0  0  0
  8 28  1  0  0  0  0
  9 11  1  0  0  0  0
  9 29  1  0  0  0  0
  9 30  1  0  0  0  0
 10 12  1  0  0  0  0
 10 31  1  0  0  0  0
 10 32  1  0  0  0  0
 11 13  1  0  0  0  0
 12 14  1  0  0  0  0
 13 15  2  0  0  0  0
 13 17  1  0  0  0  0
 14 16  2  0  0  0  0
 14 18  1  0  0  0  0
 15 19  1  0  0  0  0
 16 20  1  0  0  0  0
 17 21  2  0  0  0  0
 17 33  1  0  0  0  0
 18 22  2  0  0  0  0
 18 34  1  0  0  0  0
 19 23  2  0  0  0  0
 19 35  1  0  0  0  0
 20 24  2  0  0  0  0
 20 36  1  0  0  0  0
 21 23  1  0  0  0  0
 21 37  1  0  0  0  0
 22 24  1  0  0  0  0
 22 38  1  0  0  0  0
M  END
> <PUBCHEM_COMPOUND_CID>
283375

> <PUBCHEM_COMPOUND_CANONICALIZED>
1

> <PUBCHEM_CACTVS_COMPLEXITY>
397

> <PUBCHEM_CACTVS_HBOND_ACCEPTOR>
6

> <PUBCHEM_CACTVS_HBOND_DONOR>
4

> <PUBCHEM_CACTVS_ROTATABLE_BOND>
7

> <PUBCHEM_CACTVS_SUBSKEYS>
AAADceB4OAAAAAAAAAAAAAAAAAAAAAAAAAAwYAAAAAAAAAABQAAAGgAACAAADASAmAAwBoAAAgCIAqBSAAACAAAkIAAIiAEGCMgIJzaCFRKAcUAl4BUImYeI7OTOIAAACAAIAABAAAAQABAAAAAAAAAAAA==

> <PUBCHEM_IUPAC_OPENEYE_NAME>
1,6-bis(2,4-dihydroxyphenyl)hexane-1,6-dione

> <PUBCHEM_IUPAC_CAS_NAME>
1,6-bis(2,4-dihydroxyphenyl)hexane-1,6-dione

> <PUBCHEM_IUPAC_NAME_MARKUP>
1,6-bis(2,4-dihydroxyphenyl)hexane-1,6-dione

> <PUBCHEM_IUPAC_NAME>
1,6-bis(2,4-dihydroxyphenyl)hexane-1,6-dione

> <PUBCHEM_IUPAC_SYSTEMATIC_NAME>
1,6-bis[2,4-bis(oxidanyl)phenyl]hexane-1,6-dione

> <PUBCHEM_IUPAC_TRADITIONAL_NAME>
1,6-bis(2,4-dihydroxyphenyl)hexane-1,6-dione

> <PUBCHEM_IUPAC_INCHI>
InChI=1S/C18H18O6/c19-11-5-7-13(17(23)9-11)15(21)3-1-2-4-16(22)14-8-6-12(20)10-18(14)24/h5-10,19-20,23-24H,1-4H2

> <PUBCHEM_IUPAC_INCHIKEY>
AJQJYIFGXLJVEL-UHFFFAOYSA-N

> <PUBCHEM_XLOGP3_AA>
3.2

> <PUBCHEM_EXACT_MASS>
330.11033829

> <PUBCHEM_MOLECULAR_FORMULA>
C18H18O6

> <PUBCHEM_MOLECULAR_WEIGHT>
330.3

> <PUBCHEM_OPENEYE_CAN_SMILES>
C1=CC(=C(C=C1O)O)C(=O)CCCCC(=O)C2=C(C=C(C=C2)O)O

> <PUBCHEM_OPENEYE_ISO_SMILES>
C1=CC(=C(C=C1O)O)C(=O)CCCCC(=O)C2=C(C=C(C=C2)O)O

> <PUBCHEM_CACTVS_TPSA>
115

> <PUBCHEM_MONOISOTOPIC_WEIGHT>
330.11033829

> <PUBCHEM_TOTAL_CHARGE>
0

> <PUBCHEM_HEAVY_ATOM_COUNT>
24

> <PUBCHEM_ATOM_DEF_STEREO_COUNT>
0

> <PUBCHEM_ATOM_UDEF_STEREO_COUNT>
0

> <PUBCHEM_BOND_DEF_STEREO_COUNT>
0

> <PUBCHEM_BOND_UDEF_STEREO_COUNT>
0

> <PUBCHEM_ISOTOPIC_ATOM_COUNT>
0

> <PUBCHEM_COMPONENT_COUNT>
1

> <PUBCHEM_CACTVS_TAUTO_COUNT>
-1

> <PUBCHEM_COORDINATE_TYPE>
1
5
255

> <PUBCHEM_BONDANNOTATIONS>
13  15  8
13  17  8
14  16  8
14  18  8
15  19  8
16  20  8
17  21  8
18  22  8
19  23  8
20  24  8
21  23  8
22  24  8

$$$$
