 
  -OEChem-10192103292D

 62 64  0     1  0  0  0  0  0999 V2000
    6.0010   -3.2500    0.0000 O   0  0  0  0  0  0  0  0  0  0  0  0
    4.2690   -1.2500    0.0000 O   0  0  0  0  0  0  0  0  0  0  0  0
    6.8671   -1.7500    0.0000 O   0  0  0  0  0  0  0  0  0  0  0  0
    6.0010   -1.2500    0.0000 O   0  0  0  0  0  0  0  0  0  0  0  0
    4.2690   -4.2500    0.0000 O   0  0  0  0  0  0  0  0  0  0  0  0
    2.5369   -3.2500    0.0000 O   0  0  0  0  0  0  0  0  0  0  0  0
    7.7331   -4.2500    0.0000 O   0  0  0  0  0  0  0  0  0  0  0  0
    9.4651   -3.2500    0.0000 O   0  0  0  0  0  0  0  0  0  0  0  0
    9.4651   -1.2500    0.0000 O   0  0  0  0  0  0  0  0  0  0  0  0
    2.5369   -0.2500    0.0000 O   0  0  0  0  0  0  0  0  0  0  0  0
    6.8671    3.2500    0.0000 O   0  0  0  0  0  0  0  0  0  0  0  0
    5.1350    4.2500    0.0000 O   0  0  0  0  0  0  0  0  0  0  0  0
    5.1350   -2.7500    0.0000 C   0  0  2  0  0  0  0  0  0  0  0  0
    4.2690   -3.2500    0.0000 C   0  0  1  0  0  0  0  0  0  0  0  0
    3.4030   -2.7500    0.0000 C   0  0  1  0  0  0  0  0  0  0  0  0
    6.8671   -2.7500    0.0000 C   0  0  2  0  0  0  0  0  0  0  0  0
    5.1350   -1.7500    0.0000 C   0  0  1  0  0  0  0  0  0  0  0  0
    7.7331   -3.2500    0.0000 C   0  0  1  0  0  0  0  0  0  0  0  0
    3.4030   -1.7500    0.0000 C   0  0  1  0  0  0  0  0  0  0  0  0
    8.5991   -2.7500    0.0000 C   0  0  1  0  0  0  0  0  0  0  0  0
    8.5991   -1.7500    0.0000 C   0  0  2  0  0  0  0  0  0  0  0  0
    7.7331   -1.2500    0.0000 C   0  0  2  0  0  0  0  0  0  0  0  0
    2.5369   -1.2500    0.0000 C   0  0  0  0  0  0  0  0  0  0  0  0
    7.7331   -0.2500    0.0000 C   0  0  0  0  0  0  0  0  0  0  0  0
    6.0010   -0.2500    0.0000 C   0  0  0  0  0  0  0  0  0  0  0  0
    5.1350    0.2500    0.0000 C   0  0  0  0  0  0  0  0  0  0  0  0
    5.1350    1.2500    0.0000 C   0  0  0  0  0  0  0  0  0  0  0  0
    6.0010    1.7500    0.0000 C   0  0  0  0  0  0  0  0  0  0  0  0
    4.2690    1.7500    0.0000 C   0  0  0  0  0  0  0  0  0  0  0  0
    6.0010    2.7500    0.0000 C   0  0  0  0  0  0  0  0  0  0  0  0
    4.2690    2.7500    0.0000 C   0  0  0  0  0  0  0  0  0  0  0  0
    5.1350    3.2500    0.0000 C   0  0  0  0  0  0  0  0  0  0  0  0
    5.1350   -3.3700    0.0000 H   0  0  0  0  0  0  0  0  0  0  0  0
    3.7320   -3.5600    0.0000 H   0  0  0  0  0  0  0  0  0  0  0  0
    3.4030   -3.3700    0.0000 H   0  0  0  0  0  0  0  0  0  0  0  0
    6.8671   -3.3700    0.0000 H   0  0  0  0  0  0  0  0  0  0  0  0
    5.1350   -1.1300    0.0000 H   0  0  0  0  0  0  0  0  0  0  0  0
    8.2700   -3.5600    0.0000 H   0  0  0  0  0  0  0  0  0  0  0  0
    3.4030   -1.1300    0.0000 H   0  0  0  0  0  0  0  0  0  0  0  0
    9.1360   -2.4400    0.0000 H   0  0  0  0  0  0  0  0  0  0  0  0
    8.5991   -1.1300    0.0000 H   0  0  0  0  0  0  0  0  0  0  0  0
    7.1962   -0.9400    0.0000 H   0  0  0  0  0  0  0  0  0  0  0  0
    1.9264   -1.1423    0.0000 H   0  0  0  0  0  0  0  0  0  0  0  0
    2.3249   -1.8326    0.0000 H   0  0  0  0  0  0  0  0  0  0  0  0
    8.3531   -0.2500    0.0000 H   0  0  0  0  0  0  0  0  0  0  0  0
    7.7331    0.3700    0.0000 H   0  0  0  0  0  0  0  0  0  0  0  0
    7.1131   -0.2500    0.0000 H   0  0  0  0  0  0  0  0  0  0  0  0
    3.7320   -4.5600    0.0000 H   0  0  0  0  0  0  0  0  0  0  0  0
    2.0000   -2.9400    0.0000 H   0  0  0  0  0  0  0  0  0  0  0  0
    8.2700   -4.5600    0.0000 H   0  0  0  0  0  0  0  0  0  0  0  0
   10.0021   -2.9400    0.0000 H   0  0  0  0  0  0  0  0  0  0  0  0
    9.4651   -0.6300    0.0000 H   0  0  0  0  0  0  0  0  0  0  0  0
    6.6116   -0.3577    0.0000 H   0  0  0  0  0  0  0  0  0  0  0  0
    6.2131    0.3326    0.0000 H   0  0  0  0  0  0  0  0  0  0  0  0
    4.5244    0.3577    0.0000 H   0  0  0  0  0  0  0  0  0  0  0  0
    4.9230   -0.3326    0.0000 H   0  0  0  0  0  0  0  0  0  0  0  0
    2.0000    0.0600    0.0000 H   0  0  0  0  0  0  0  0  0  0  0  0
    6.5380    1.4400    0.0000 H   0  0  0  0  0  0  0  0  0  0  0  0
    3.7320    1.4400    0.0000 H   0  0  0  0  0  0  0  0  0  0  0  0
    3.7320    3.0600    0.0000 H   0  0  0  0  0  0  0  0  0  0  0  0
    6.8671    3.8700    0.0000 H   0  0  0  0  0  0  0  0  0  0  0  0
    4.5981    4.5600    0.0000 H   0  0  0  0  0  0  0  0  0  0  0  0
 13  1  1  6  0  0  0
 16  1  1  6  0  0  0
  2 17  1  0  0  0  0
  2 19  1  0  0  0  0
  3 16  1  0  0  0  0
  3 22  1  0  0  0  0
 17  4  1  1  0  0  0
  4 25  1  0  0  0  0
 14  5  1  6  0  0  0
  5 48  1  0  0  0  0
 15  6  1  6  0  0  0
  6 49  1  0  0  0  0
 18  7  1  1  0  0  0
  7 50  1  0  0  0  0
 20  8  1  1  0  0  0
  8 51  1  0  0  0  0
 21  9  1  6  0  0  0
  9 52  1  0  0  0  0
 10 23  1  0  0  0  0
 10 57  1  0  0  0  0
 11 30  1  0  0  0  0
 11 61  1  0  0  0  0
 12 32  1  0  0  0  0
 12 62  1  0  0  0  0
 13 14  1  0  0  0  0
 13 17  1  0  0  0  0
 13 33  1  0  0  0  0
 14 15  1  0  0  0  0
 14 34  1  0  0  0  0
 15 19  1  0  0  0  0
 15 35  1  0  0  0  0
 16 18  1  0  0  0  0
 16 36  1  0  0  0  0
 17 37  1  0  0  0  0
 18 20  1  0  0  0  0
 18 38  1  0  0  0  0
 19 23  1  1  0  0  0
 19 39  1  0  0  0  0
 20 21  1  0  0  0  0
 20 40  1  0  0  0  0
 21 22  1  0  0  0  0
 21 41  1  0  0  0  0
 22 24  1  1  0  0  0
 22 42  1  0  0  0  0
 23 43  1  0  0  0  0
 23 44  1  0  0  0  0
 24 45  1  0  0  0  0
 24 46  1  0  0  0  0
 24 47  1  0  0  0  0
 25 26  1  0  0  0  0
 25 53  1  0  0  0  0
 25 54  1  0  0  0  0
 26 27  1  0  0  0  0
 26 55  1  0  0  0  0
 26 56  1  0  0  0  0
 27 28  2  0  0  0  0
 27 29  1  0  0  0  0
 28 30  1  0  0  0  0
 28 58  1  0  0  0  0
 29 31  2  0  0  0  0
 29 59  1  0  0  0  0
 30 32  2  0  0  0  0
 31 32  1  0  0  0  0
 31 60  1  0  0  0  0
M  END
> <PUBCHEM_COMPOUND_CID>
101456594

> <PUBCHEM_COMPOUND_CANONICALIZED>
1

> <PUBCHEM_CACTVS_COMPLEXITY>
581

> <PUBCHEM_CACTVS_HBOND_ACCEPTOR>
12

> <PUBCHEM_CACTVS_HBOND_DONOR>
8

> <PUBCHEM_CACTVS_ROTATABLE_BOND>
7

> <PUBCHEM_CACTVS_SUBSKEYS>
AAADceB4PAAAAAAAAAAAAAAAAAAAAAAAAAA0SIAAAAAAAAABAAAAGgAACAAADBSwmAMyDoAABgCAAiBCAAACAAAgIAAIiAAGiIgZNiKCERKicAElwBEPmAfA4LwOIAABAAAAQABAAAIAAACAAAAAAAAAAA==

> <PUBCHEM_IUPAC_OPENEYE_NAME>
(2S,3R,4R,5R,6S)-2-[(2R,3R,4R,5S,6R)-2-[2-(3,4-dihydroxyphenyl)ethoxy]-4,5-dihydroxy-6-(hydroxymethyl)tetrahydropyran-3-yl]oxy-6-methyl-tetrahydropyran-3,4,5-triol

> <PUBCHEM_IUPAC_CAS_NAME>
(2S,3R,4R,5R,6S)-2-[[(2R,3R,4R,5S,6R)-2-[2-(3,4-dihydroxyphenyl)ethoxy]-4,5-dihydroxy-6-(hydroxymethyl)-3-oxanyl]oxy]-6-methyloxane-3,4,5-triol

> <PUBCHEM_IUPAC_NAME_MARKUP>
(2<I>S</I>,3<I>R</I>,4<I>R</I>,5<I>R</I>,6<I>S</I>)-2-[(2<I>R</I>,3<I>R</I>,4<I>R</I>,5<I>S</I>,6<I>R</I>)-2-[2-(3,4-dihydroxyphenyl)ethoxy]-4,5-dihydroxy-6-(hydroxymethyl)oxan-3-yl]oxy-6-methyloxane-3,4,5-triol

> <PUBCHEM_IUPAC_NAME>
(2S,3R,4R,5R,6S)-2-[(2R,3R,4R,5S,6R)-2-[2-(3,4-dihydroxyphenyl)ethoxy]-4,5-dihydroxy-6-(hydroxymethyl)oxan-3-yl]oxy-6-methyloxane-3,4,5-triol

> <PUBCHEM_IUPAC_SYSTEMATIC_NAME>
(2S,3R,4R,5R,6S)-2-[(2R,3R,4R,5S,6R)-2-[2-[3,4-bis(oxidanyl)phenyl]ethoxy]-6-(hydroxymethyl)-4,5-bis(oxidanyl)oxan-3-yl]oxy-6-methyl-oxane-3,4,5-triol

> <PUBCHEM_IUPAC_TRADITIONAL_NAME>
(2S,3R,4R,5R,6S)-2-[(2R,3R,4R,5S,6R)-2-[2-(3,4-dihydroxyphenyl)ethoxy]-4,5-dihydroxy-6-methylol-tetrahydropyran-3-yl]oxy-6-methyl-tetrahydropyran-3,4,5-triol

> <PUBCHEM_IUPAC_INCHI>
InChI=1S/C20H30O12/c1-8-13(24)15(26)17(28)19(30-8)32-18-16(27)14(25)12(7-21)31-20(18)29-5-4-9-2-3-10(22)11(23)6-9/h2-3,6,8,12-28H,4-5,7H2,1H3/t8-,12+,13-,14+,15+,16+,17+,18+,19-,20+/m0/s1

> <PUBCHEM_IUPAC_INCHIKEY>
JHEASVUMCDNITC-VFVXKVIASA-N

> <PUBCHEM_XLOGP3_AA>
-1.9

> <PUBCHEM_EXACT_MASS>
462.17372639

> <PUBCHEM_MOLECULAR_FORMULA>
C20H30O12

> <PUBCHEM_MOLECULAR_WEIGHT>
462.4

> <PUBCHEM_OPENEYE_CAN_SMILES>
CC1C(C(C(C(O1)OC2C(C(C(OC2OCCC3=CC(=C(C=C3)O)O)CO)O)O)O)O)O

> <PUBCHEM_OPENEYE_ISO_SMILES>
C[C@H]1[C@@H]([C@H]([C@H]([C@@H](O1)O[C@@H]2[C@@H]([C@@H]([C@H](O[C@H]2OCCC3=CC(=C(C=C3)O)O)CO)O)O)O)O)O

> <PUBCHEM_CACTVS_TPSA>
199

> <PUBCHEM_MONOISOTOPIC_WEIGHT>
462.17372639

> <PUBCHEM_TOTAL_CHARGE>
0

> <PUBCHEM_HEAVY_ATOM_COUNT>
32

> <PUBCHEM_ATOM_DEF_STEREO_COUNT>
10

> <PUBCHEM_ATOM_UDEF_STEREO_COUNT>
0

> <PUBCHEM_BOND_DEF_STEREO_COUNT>
0

> <PUBCHEM_BOND_UDEF_STEREO_COUNT>
0

> <PUBCHEM_ISOTOPIC_ATOM_COUNT>
0

> <PUBCHEM_COMPONENT_COUNT>
1

> <PUBCHEM_CACTVS_TAUTO_COUNT>
-1

> <PUBCHEM_COORDINATE_TYPE>
1
5
255

> <PUBCHEM_BONDANNOTATIONS>
13  1  6
16  1  6
19  23  5
22  24  5
27  28  8
27  29  8
28  30  8
29  31  8
30  32  8
31  32  8
17  4  5
14  5  6
15  6  6
18  7  5
20  8  5
21  9  6

$$$$
