 
  -OEChem-10192104232D

 42 43  0     1  0  0  0  0  0999 V2000
    5.1350   -0.1550    0.0000 O   0  0  0  0  0  0  0  0  0  0  0  0
    6.8671   -0.1550    0.0000 O   0  0  0  0  0  0  0  0  0  0  0  0
    5.1350   -3.1550    0.0000 O   0  0  0  0  0  0  0  0  0  0  0  0
    3.4030   -2.1550    0.0000 O   0  0  0  0  0  0  0  0  0  0  0  0
    6.8671   -2.1550    0.0000 O   0  0  0  0  0  0  0  0  0  0  0  0
    2.5369   -0.6550    0.0000 O   0  0  0  0  0  0  0  0  0  0  0  0
    5.1350    2.8450    0.0000 O   0  0  0  0  0  0  0  0  0  0  0  0
   11.1972    1.3450    0.0000 O   0  0  0  0  0  0  0  0  0  0  0  0
   10.3312   -0.1550    0.0000 O   0  0  0  0  0  0  0  0  0  0  0  0
    5.1350   -2.1550    0.0000 C   0  0  1  0  0  0  0  0  0  0  0  0
    4.2690   -1.6550    0.0000 C   0  0  1  0  0  0  0  0  0  0  0  0
    6.0010   -1.6550    0.0000 C   0  0  2  0  0  0  0  0  0  0  0  0
    4.2690   -0.6550    0.0000 C   0  0  1  0  0  0  0  0  0  0  0  0
    6.0010   -0.6550    0.0000 C   0  0  1  0  0  0  0  0  0  0  0  0
    3.4030   -0.1550    0.0000 C   0  0  0  0  0  0  0  0  0  0  0  0
    6.8671    0.8450    0.0000 C   0  0  0  0  0  0  0  0  0  0  0  0
    7.7331    1.3450    0.0000 C   0  0  0  0  0  0  0  0  0  0  0  0
    6.0010    1.3450    0.0000 C   0  0  0  0  0  0  0  0  0  0  0  0
    7.7331    2.3450    0.0000 C   0  0  0  0  0  0  0  0  0  0  0  0
    6.0010    2.3450    0.0000 C   0  0  0  0  0  0  0  0  0  0  0  0
    6.8671    2.8450    0.0000 C   0  0  0  0  0  0  0  0  0  0  0  0
    8.5991    0.8450    0.0000 C   0  0  0  0  0  0  0  0  0  0  0  0
    9.4651    1.3450    0.0000 C   0  0  0  0  0  0  0  0  0  0  0  0
   10.3312    0.8450    0.0000 C   0  0  0  0  0  0  0  0  0  0  0  0
    4.5981   -2.4650    0.0000 H   0  0  0  0  0  0  0  0  0  0  0  0
    4.2690   -2.2750    0.0000 H   0  0  0  0  0  0  0  0  0  0  0  0
    6.0010   -2.2750    0.0000 H   0  0  0  0  0  0  0  0  0  0  0  0
    4.2690   -0.0350    0.0000 H   0  0  0  0  0  0  0  0  0  0  0  0
    6.0010   -0.0350    0.0000 H   0  0  0  0  0  0  0  0  0  0  0  0
    3.8015    0.3199    0.0000 H   0  0  0  0  0  0  0  0  0  0  0  0
    3.0044    0.3199    0.0000 H   0  0  0  0  0  0  0  0  0  0  0  0
    4.5981   -3.4650    0.0000 H   0  0  0  0  0  0  0  0  0  0  0  0
    3.4030   -2.7750    0.0000 H   0  0  0  0  0  0  0  0  0  0  0  0
    6.8671   -2.7750    0.0000 H   0  0  0  0  0  0  0  0  0  0  0  0
    2.0000   -0.3450    0.0000 H   0  0  0  0  0  0  0  0  0  0  0  0
    5.4641    1.0350    0.0000 H   0  0  0  0  0  0  0  0  0  0  0  0
    8.2700    2.6550    0.0000 H   0  0  0  0  0  0  0  0  0  0  0  0
    6.8671    3.4650    0.0000 H   0  0  0  0  0  0  0  0  0  0  0  0
    8.5991    0.2250    0.0000 H   0  0  0  0  0  0  0  0  0  0  0  0
    9.4651    1.9650    0.0000 H   0  0  0  0  0  0  0  0  0  0  0  0
    5.1350    3.4650    0.0000 H   0  0  0  0  0  0  0  0  0  0  0  0
   11.1972    1.9650    0.0000 H   0  0  0  0  0  0  0  0  0  0  0  0
  1 13  1  0  0  0  0
  1 14  1  0  0  0  0
 14  2  1  1  0  0  0
  2 16  1  0  0  0  0
 10  3  1  1  0  0  0
  3 32  1  0  0  0  0
 11  4  1  6  0  0  0
  4 33  1  0  0  0  0
 12  5  1  6  0  0  0
  5 34  1  0  0  0  0
  6 15  1  0  0  0  0
  6 35  1  0  0  0  0
  7 20  1  0  0  0  0
  7 41  1  0  0  0  0
  8 24  1  0  0  0  0
  8 42  1  0  0  0  0
  9 24  2  0  0  0  0
 10 11  1  0  0  0  0
 10 12  1  0  0  0  0
 10 25  1  0  0  0  0
 11 13  1  0  0  0  0
 11 26  1  0  0  0  0
 12 14  1  0  0  0  0
 12 27  1  0  0  0  0
 13 15  1  1  0  0  0
 13 28  1  0  0  0  0
 14 29  1  0  0  0  0
 15 30  1  0  0  0  0
 15 31  1  0  0  0  0
 16 17  2  0  0  0  0
 16 18  1  0  0  0  0
 17 19  1  0  0  0  0
 17 22  1  0  0  0  0
 18 20  2  0  0  0  0
 18 36  1  0  0  0  0
 19 21  2  0  0  0  0
 19 37  1  0  0  0  0
 20 21  1  0  0  0  0
 21 38  1  0  0  0  0
 22 23  2  0  0  0  0
 22 39  1  0  0  0  0
 23 24  1  0  0  0  0
 23 40  1  0  0  0  0
M  END
> <PUBCHEM_COMPOUND_CID>
102272379

> <PUBCHEM_COMPOUND_CANONICALIZED>
1

> <PUBCHEM_CACTVS_COMPLEXITY>
454

> <PUBCHEM_CACTVS_HBOND_ACCEPTOR>
9

> <PUBCHEM_CACTVS_HBOND_DONOR>
6

> <PUBCHEM_CACTVS_ROTATABLE_BOND>
5

> <PUBCHEM_CACTVS_SUBSKEYS>
AAADceBwPAAAAAAAAAAAAAAAAAAAAAAAAAA0QAAAAAAAAAABAAAAGgAACAAADBSwmAMwDoAABgCIAiDSCAACCAAgIAAIiAAGCMgdNyKGMRqieCClwBUPuYfA4CwOIAAACAAIAABAAAAQABAAAAAAAAAAAA==

> <PUBCHEM_IUPAC_OPENEYE_NAME>
(E)-3-[4-hydroxy-2-[(2S,3R,4S,5S,6R)-3,4,5-trihydroxy-6-(hydroxymethyl)tetrahydropyran-2-yl]oxy-phenyl]prop-2-enoic acid

> <PUBCHEM_IUPAC_CAS_NAME>
(E)-3-[4-hydroxy-2-[[(2S,3R,4S,5S,6R)-3,4,5-trihydroxy-6-(hydroxymethyl)-2-oxanyl]oxy]phenyl]-2-propenoic acid

> <PUBCHEM_IUPAC_NAME_MARKUP>
(<I>E</I>)-3-[4-hydroxy-2-[(2<I>S</I>,3<I>R</I>,4<I>S</I>,5<I>S</I>,6<I>R</I>)-3,4,5-trihydroxy-6-(hydroxymethyl)oxan-2-yl]oxyphenyl]prop-2-enoic acid

> <PUBCHEM_IUPAC_NAME>
(E)-3-[4-hydroxy-2-[(2S,3R,4S,5S,6R)-3,4,5-trihydroxy-6-(hydroxymethyl)oxan-2-yl]oxyphenyl]prop-2-enoic acid

> <PUBCHEM_IUPAC_SYSTEMATIC_NAME>
(E)-3-[2-[(2S,3R,4S,5S,6R)-6-(hydroxymethyl)-3,4,5-tris(oxidanyl)oxan-2-yl]oxy-4-oxidanyl-phenyl]prop-2-enoic acid

> <PUBCHEM_IUPAC_TRADITIONAL_NAME>
(E)-3-[4-hydroxy-2-[(2S,3R,4S,5S,6R)-3,4,5-trihydroxy-6-methylol-tetrahydropyran-2-yl]oxy-phenyl]acrylic acid

> <PUBCHEM_IUPAC_INCHI>
InChI=1S/C15H18O9/c16-6-10-12(20)13(21)14(22)15(24-10)23-9-5-8(17)3-1-7(9)2-4-11(18)19/h1-5,10,12-17,20-22H,6H2,(H,18,19)/b4-2+/t10-,12-,13+,14-,15-/m1/s1

> <PUBCHEM_IUPAC_INCHIKEY>
QATFADFSDCUNIX-VHCZEJTMSA-N

> <PUBCHEM_XLOGP3>
-0.9

> <PUBCHEM_EXACT_MASS>
342.09508215

> <PUBCHEM_MOLECULAR_FORMULA>
C15H18O9

> <PUBCHEM_MOLECULAR_WEIGHT>
342.30

> <PUBCHEM_OPENEYE_CAN_SMILES>
C1=CC(=C(C=C1O)OC2C(C(C(C(O2)CO)O)O)O)C=CC(=O)O

> <PUBCHEM_OPENEYE_ISO_SMILES>
C1=CC(=C(C=C1O)O[C@H]2[C@@H]([C@H]([C@@H]([C@H](O2)CO)O)O)O)/C=C/C(=O)O

> <PUBCHEM_CACTVS_TPSA>
157

> <PUBCHEM_MONOISOTOPIC_WEIGHT>
342.09508215

> <PUBCHEM_TOTAL_CHARGE>
0

> <PUBCHEM_HEAVY_ATOM_COUNT>
24

> <PUBCHEM_ATOM_DEF_STEREO_COUNT>
5

> <PUBCHEM_ATOM_UDEF_STEREO_COUNT>
0

> <PUBCHEM_BOND_DEF_STEREO_COUNT>
1

> <PUBCHEM_BOND_UDEF_STEREO_COUNT>
0

> <PUBCHEM_ISOTOPIC_ATOM_COUNT>
0

> <PUBCHEM_COMPONENT_COUNT>
1

> <PUBCHEM_CACTVS_TAUTO_COUNT>
-1

> <PUBCHEM_COORDINATE_TYPE>
1
5
255

> <PUBCHEM_BONDANNOTATIONS>
13  15  5
16  17  8
16  18  8
17  19  8
18  20  8
19  21  8
14  2  5
20  21  8
10  3  5
11  4  6
12  5  6

$$$$
