 
  -OEChem-10192103492D

102106  0     1  0  0  0  0  0999 V2000
    6.3871    1.0280    0.0000 O   0  0  0  0  0  0  0  0  0  0  0  0
    9.3056    1.9763    0.0000 O   0  0  0  0  0  0  0  0  0  0  0  0
    7.1962   -3.5598    0.0000 O   0  0  0  0  0  0  0  0  0  0  0  0
    5.4641   -3.5598    0.0000 O   0  0  0  0  0  0  0  0  0  0  0  0
    8.9282   -2.5598    0.0000 O   0  0  0  0  0  0  0  0  0  0  0  0
    5.4641   -2.5598    0.0000 O   0  0  0  0  0  0  0  0  0  0  0  0
    6.7750    5.5643    0.0000 O   0  0  0  0  0  0  0  0  0  0  0  0
   10.2391    5.5583    0.0000 O   0  0  0  0  0  0  0  0  0  0  0  0
    7.1962   -5.5598    0.0000 O   0  0  0  0  0  0  0  0  0  0  0  0
    5.4641   -6.5598    0.0000 O   0  0  0  0  0  0  0  0  0  0  0  0
    3.7320   -5.5598    0.0000 O   0  0  0  0  0  0  0  0  0  0  0  0
    8.5088    6.5613    0.0000 O   0  0  0  0  0  0  0  0  0  0  0  0
    3.7320   -2.5598    0.0000 O   0  0  0  0  0  0  0  0  0  0  0  0
    6.3301   -7.0598    0.0000 O   0  0  0  0  0  0  0  0  0  0  0  0
    3.7320   -6.5598    0.0000 O   0  0  0  0  0  0  0  0  0  0  0  0
    2.8660   -4.0598    0.0000 O   0  0  0  0  0  0  0  0  0  0  0  0
   10.2409    6.5583    0.0000 O   0  0  0  0  0  0  0  0  0  0  0  0
    2.0000   -2.5598    0.0000 O   0  0  0  0  0  0  0  0  0  0  0  0
    8.0052    1.0280    0.0000 C   0  0  1  0  0  0  0  0  0  0  0  0
    7.6962    1.9791    0.0000 C   0  0  1  0  0  0  0  0  0  0  0  0
    7.1962    0.4402    0.0000 C   0  0  1  0  0  0  0  0  0  0  0  0
    8.5019    2.5613    0.0000 C   0  0  1  0  0  0  0  0  0  0  0  0
    6.6962    1.9791    0.0000 C   0  0  0  0  0  0  0  0  0  0  0  0
    8.9992    1.0306    0.0000 C   0  0  0  0  0  0  0  0  0  0  0  0
    7.1962   -0.5598    0.0000 C   0  0  0  0  0  0  0  0  0  0  0  0
    8.5036    3.5613    0.0000 C   0  0  0  0  0  0  0  0  0  0  0  0
    6.3301   -1.0598    0.0000 C   0  0  0  0  0  0  0  0  0  0  0  0
    8.0622   -1.0598    0.0000 C   0  0  0  0  0  0  0  0  0  0  0  0
    9.3705    4.0598    0.0000 C   0  0  0  0  0  0  0  0  0  0  0  0
    7.6385    4.0628    0.0000 C   0  0  0  0  0  0  0  0  0  0  0  0
    8.0622   -2.0598    0.0000 C   0  0  0  0  0  0  0  0  0  0  0  0
    6.3301   -2.0598    0.0000 C   0  0  0  0  0  0  0  0  0  0  0  0
    7.1962   -2.5598    0.0000 C   0  0  0  0  0  0  0  0  0  0  0  0
    7.6402    5.0628    0.0000 C   0  0  0  0  0  0  0  0  0  0  0  0
    9.3722    5.0598    0.0000 C   0  0  0  0  0  0  0  0  0  0  0  0
    6.3301   -4.0598    0.0000 C   0  0  2  0  0  0  0  0  0  0  0  0
    6.3301   -5.0598    0.0000 C   0  0  1  0  0  0  0  0  0  0  0  0
    5.4641   -5.5598    0.0000 C   0  0  2  0  0  0  0  0  0  0  0  0
    8.5071    5.5613    0.0000 C   0  0  0  0  0  0  0  0  0  0  0  0
    4.5981   -5.0598    0.0000 C   0  0  1  0  0  0  0  0  0  0  0  0
    4.5981   -4.0598    0.0000 C   0  0  1  0  0  0  0  0  0  0  0  0
    3.7320   -3.5598    0.0000 C   0  0  0  0  0  0  0  0  0  0  0  0
    9.7942   -2.0598    0.0000 C   0  0  0  0  0  0  0  0  0  0  0  0
    4.5981   -2.0598    0.0000 C   0  0  0  0  0  0  0  0  0  0  0  0
    6.7768    6.5643    0.0000 C   0  0  0  0  0  0  0  0  0  0  0  0
   11.1043    5.0568    0.0000 C   0  0  0  0  0  0  0  0  0  0  0  0
    7.1962   -6.5598    0.0000 C   0  0  0  0  0  0  0  0  0  0  0  0
    4.5981   -7.0598    0.0000 C   0  0  0  0  0  0  0  0  0  0  0  0
    2.8660   -5.0598    0.0000 C   0  0  0  0  0  0  0  0  0  0  0  0
    9.3757    7.0598    0.0000 C   0  0  0  0  0  0  0  0  0  0  0  0
    8.0622   -7.0598    0.0000 C   0  0  0  0  0  0  0  0  0  0  0  0
    4.5981   -8.0598    0.0000 C   0  0  0  0  0  0  0  0  0  0  0  0
    2.0000   -5.5598    0.0000 C   0  0  0  0  0  0  0  0  0  0  0  0
    2.8660   -2.0598    0.0000 C   0  0  0  0  0  0  0  0  0  0  0  0
    9.3774    8.0598    0.0000 C   0  0  0  0  0  0  0  0  0  0  0  0
    2.8660   -1.0598    0.0000 C   0  0  0  0  0  0  0  0  0  0  0  0
    8.2689    0.2200    0.0000 H   0  0  0  0  0  0  0  0  0  0  0  0
    7.4345    2.7878    0.0000 H   0  0  0  0  0  0  0  0  0  0  0  0
    6.6437    0.1588    0.0000 H   0  0  0  0  0  0  0  0  0  0  0  0
    9.0547    2.8420    0.0000 H   0  0  0  0  0  0  0  0  0  0  0  0
    6.7610    2.5957    0.0000 H   0  0  0  0  0  0  0  0  0  0  0  0
    6.0897    2.1080    0.0000 H   0  0  0  0  0  0  0  0  0  0  0  0
    8.9357    0.4139    0.0000 H   0  0  0  0  0  0  0  0  0  0  0  0
    9.6059    0.9026    0.0000 H   0  0  0  0  0  0  0  0  0  0  0  0
    5.7932   -0.7498    0.0000 H   0  0  0  0  0  0  0  0  0  0  0  0
    8.5991   -0.7498    0.0000 H   0  0  0  0  0  0  0  0  0  0  0  0
    9.9069    3.7488    0.0000 H   0  0  0  0  0  0  0  0  0  0  0  0
    7.1010    3.7537    0.0000 H   0  0  0  0  0  0  0  0  0  0  0  0
    6.3301   -3.4398    0.0000 H   0  0  0  0  0  0  0  0  0  0  0  0
    6.3301   -5.6798    0.0000 H   0  0  0  0  0  0  0  0  0  0  0  0
    4.9272   -5.8698    0.0000 H   0  0  0  0  0  0  0  0  0  0  0  0
    4.5981   -5.6798    0.0000 H   0  0  0  0  0  0  0  0  0  0  0  0
    4.5981   -3.4398    0.0000 H   0  0  0  0  0  0  0  0  0  0  0  0
    3.1215   -3.4521    0.0000 H   0  0  0  0  0  0  0  0  0  0  0  0
    3.5200   -4.1424    0.0000 H   0  0  0  0  0  0  0  0  0  0  0  0
   10.1042   -2.5967    0.0000 H   0  0  0  0  0  0  0  0  0  0  0  0
   10.3312   -1.7498    0.0000 H   0  0  0  0  0  0  0  0  0  0  0  0
    9.4842   -1.5228    0.0000 H   0  0  0  0  0  0  0  0  0  0  0  0
    4.9081   -1.5228    0.0000 H   0  0  0  0  0  0  0  0  0  0  0  0
    4.0611   -1.7498    0.0000 H   0  0  0  0  0  0  0  0  0  0  0  0
    4.2881   -2.5967    0.0000 H   0  0  0  0  0  0  0  0  0  0  0  0
    7.3968    6.5632    0.0000 H   0  0  0  0  0  0  0  0  0  0  0  0
    6.7778    7.1843    0.0000 H   0  0  0  0  0  0  0  0  0  0  0  0
    6.1568    6.5654    0.0000 H   0  0  0  0  0  0  0  0  0  0  0  0
   10.7934    4.5204    0.0000 H   0  0  0  0  0  0  0  0  0  0  0  0
   11.6407    4.7458    0.0000 H   0  0  0  0  0  0  0  0  0  0  0  0
   11.4152    5.5932    0.0000 H   0  0  0  0  0  0  0  0  0  0  0  0
    7.7522   -7.5967    0.0000 H   0  0  0  0  0  0  0  0  0  0  0  0
    8.5991   -7.3698    0.0000 H   0  0  0  0  0  0  0  0  0  0  0  0
    8.3722   -6.5228    0.0000 H   0  0  0  0  0  0  0  0  0  0  0  0
    3.9781   -8.0598    0.0000 H   0  0  0  0  0  0  0  0  0  0  0  0
    4.5981   -8.6798    0.0000 H   0  0  0  0  0  0  0  0  0  0  0  0
    5.2181   -8.0598    0.0000 H   0  0  0  0  0  0  0  0  0  0  0  0
    1.6900   -5.0228    0.0000 H   0  0  0  0  0  0  0  0  0  0  0  0
    1.4631   -5.8698    0.0000 H   0  0  0  0  0  0  0  0  0  0  0  0
    2.3100   -6.0967    0.0000 H   0  0  0  0  0  0  0  0  0  0  0  0
    9.9974    8.0587    0.0000 H   0  0  0  0  0  0  0  0  0  0  0  0
    9.3785    8.6798    0.0000 H   0  0  0  0  0  0  0  0  0  0  0  0
    8.7574    8.0608    0.0000 H   0  0  0  0  0  0  0  0  0  0  0  0
    3.4860   -1.0598    0.0000 H   0  0  0  0  0  0  0  0  0  0  0  0
    2.8660   -0.4398    0.0000 H   0  0  0  0  0  0  0  0  0  0  0  0
    2.2460   -1.0598    0.0000 H   0  0  0  0  0  0  0  0  0  0  0  0
  1 21  1  0  0  0  0
  1 23  1  0  0  0  0
  2 22  1  0  0  0  0
  2 24  1  0  0  0  0
  3 33  1  0  0  0  0
 36  3  1  1  0  0  0
  4 36  1  0  0  0  0
  4 41  1  0  0  0  0
  5 31  1  0  0  0  0
  5 43  1  0  0  0  0
  6 32  1  0  0  0  0
  6 44  1  0  0  0  0
  7 34  1  0  0  0  0
  7 45  1  0  0  0  0
  8 35  1  0  0  0  0
  8 46  1  0  0  0  0
 37  9  1  6  0  0  0
  9 47  1  0  0  0  0
 38 10  1  1  0  0  0
 10 48  1  0  0  0  0
 40 11  1  6  0  0  0
 11 49  1  0  0  0  0
 12 39  1  0  0  0  0
 12 50  1  0  0  0  0
 13 42  1  0  0  0  0
 13 54  1  0  0  0  0
 14 47  2  0  0  0  0
 15 48  2  0  0  0  0
 16 49  2  0  0  0  0
 17 50  2  0  0  0  0
 18 54  2  0  0  0  0
 19 20  1  0  0  0  0
 19 21  1  0  0  0  0
 19 24  1  0  0  0  0
 19 57  1  1  0  0  0
 20 22  1  0  0  0  0
 20 23  1  0  0  0  0
 20 58  1  1  0  0  0
 21 25  1  1  0  0  0
 21 59  1  0  0  0  0
 22 26  1  1  0  0  0
 22 60  1  0  0  0  0
 23 61  1  0  0  0  0
 23 62  1  0  0  0  0
 24 63  1  0  0  0  0
 24 64  1  0  0  0  0
 25 27  2  0  0  0  0
 25 28  1  0  0  0  0
 26 29  2  0  0  0  0
 26 30  1  0  0  0  0
 27 32  1  0  0  0  0
 27 65  1  0  0  0  0
 28 31  2  0  0  0  0
 28 66  1  0  0  0  0
 29 35  1  0  0  0  0
 29 67  1  0  0  0  0
 30 34  2  0  0  0  0
 30 68  1  0  0  0  0
 31 33  1  0  0  0  0
 32 33  2  0  0  0  0
 34 39  1  0  0  0  0
 35 39  2  0  0  0  0
 36 37  1  0  0  0  0
 36 69  1  0  0  0  0
 37 38  1  0  0  0  0
 37 70  1  0  0  0  0
 38 40  1  0  0  0  0
 38 71  1  0  0  0  0
 40 41  1  0  0  0  0
 40 72  1  0  0  0  0
 41 42  1  1  0  0  0
 41 73  1  0  0  0  0
 42 74  1  0  0  0  0
 42 75  1  0  0  0  0
 43 76  1  0  0  0  0
 43 77  1  0  0  0  0
 43 78  1  0  0  0  0
 44 79  1  0  0  0  0
 44 80  1  0  0  0  0
 44 81  1  0  0  0  0
 45 82  1  0  0  0  0
 45 83  1  0  0  0  0
 45 84  1  0  0  0  0
 46 85  1  0  0  0  0
 46 86  1  0  0  0  0
 46 87  1  0  0  0  0
 47 51  1  0  0  0  0
 48 52  1  0  0  0  0
 49 53  1  0  0  0  0
 50 55  1  0  0  0  0
 51 88  1  0  0  0  0
 51 89  1  0  0  0  0
 51 90  1  0  0  0  0
 52 91  1  0  0  0  0
 52 92  1  0  0  0  0
 52 93  1  0  0  0  0
 53 94  1  0  0  0  0
 53 95  1  0  0  0  0
 53 96  1  0  0  0  0
 54 56  1  0  0  0  0
 55 97  1  0  0  0  0
 55 98  1  0  0  0  0
 55 99  1  0  0  0  0
 56100  1  0  0  0  0
 56101  1  0  0  0  0
 56102  1  0  0  0  0
M  END
> <PUBCHEM_COMPOUND_CID>
101609020

> <PUBCHEM_COMPOUND_CANONICALIZED>
1

> <PUBCHEM_CACTVS_COMPLEXITY>
1350

> <PUBCHEM_CACTVS_HBOND_ACCEPTOR>
18

> <PUBCHEM_CACTVS_HBOND_DONOR>
0

> <PUBCHEM_CACTVS_ROTATABLE_BOND>
19

> <PUBCHEM_CACTVS_SUBSKEYS>
AAADcfB8PgAAAAAAAAAAAAAAAAAAASJAAAA0YIAAAAASAAABQAAAGgAAAAAADRSwmAMyDoAABACIAiDSCAACCAAgIAAAiAAGiIgdJyKEMRqiOiKlwBUOqAfA4PwOoAABCAAAQABAAAIQAACAAAAAAAAAAA==

> <PUBCHEM_IUPAC_OPENEYE_NAME>
[(2R,3R,4S,5R,6S)-6-[4-[(3S,3aR,6S,6aR)-6-(4-acetoxy-3,5-dimethoxy-phenyl)-1,3,3a,4,6,6a-hexahydrofuro[3,4-c]furan-3-yl]-2,6-dimethoxy-phenoxy]-3,4,5-triacetoxy-tetrahydropyran-2-yl]methyl acetate

> <PUBCHEM_IUPAC_CAS_NAME>
acetic acid [(2R,3R,4S,5R,6S)-6-[4-[(3S,3aR,6S,6aR)-6-(4-acetyloxy-3,5-dimethoxyphenyl)-1,3,3a,4,6,6a-hexahydrofuro[3,4-c]furan-3-yl]-2,6-dimethoxyphenoxy]-3,4,5-triacetyloxy-2-oxanyl]methyl ester

> <PUBCHEM_IUPAC_NAME_MARKUP>
[(2<I>R</I>,3<I>R</I>,4<I>S</I>,5<I>R</I>,6<I>S</I>)-6-[4-[(3<I>S</I>,3<I>a</I><I>R</I>,6<I>S</I>,6<I>a</I><I>R</I>)-6-(4-acetyloxy-3,5-dimethoxyphenyl)-1,3,3<I>a</I>,4,6,6<I>a</I>-hexahydrofuro[3,4-c]furan-3-yl]-2,6-dimethoxyphenoxy]-3,4,5-triacetyloxyoxan-2-yl]methyl acetate

> <PUBCHEM_IUPAC_NAME>
[(2R,3R,4S,5R,6S)-6-[4-[(3S,3aR,6S,6aR)-6-(4-acetyloxy-3,5-dimethoxyphenyl)-1,3,3a,4,6,6a-hexahydrofuro[3,4-c]furan-3-yl]-2,6-dimethoxyphenoxy]-3,4,5-triacetyloxyoxan-2-yl]methyl acetate

> <PUBCHEM_IUPAC_SYSTEMATIC_NAME>
[(2R,3R,4S,5R,6S)-6-[4-[(3S,3aR,6S,6aR)-6-(4-acetyloxy-3,5-dimethoxy-phenyl)-1,3,3a,4,6,6a-hexahydrofuro[3,4-c]furan-3-yl]-2,6-dimethoxy-phenoxy]-3,4,5-triacetyloxy-oxan-2-yl]methyl ethanoate

> <PUBCHEM_IUPAC_TRADITIONAL_NAME>
acetic acid [(2R,3R,4S,5R,6S)-6-[4-[(3S,3aR,6S,6aR)-6-(4-acetoxy-3,5-dimethoxy-phenyl)-1,3,3a,4,6,6a-hexahydrofuro[3,4-c]furan-3-yl]-2,6-dimethoxy-phenoxy]-3,4,5-triacetoxy-tetrahydropyran-2-yl]methyl ester

> <PUBCHEM_IUPAC_INCHI>
InChI=1S/C38H46O18/c1-17(39)48-16-30-35(52-19(3)41)36(53-20(4)42)37(54-21(5)43)38(55-30)56-34-28(46-8)12-23(13-29(34)47-9)32-25-15-49-31(24(25)14-50-32)22-10-26(44-6)33(51-18(2)40)27(11-22)45-7/h10-13,24-25,30-32,35-38H,14-16H2,1-9H3/t24-,25-,30+,31+,32+,35+,36-,37+,38-/m0/s1

> <PUBCHEM_IUPAC_INCHIKEY>
BKLUEPLPMYEHOD-DAIISBFOSA-N

> <PUBCHEM_XLOGP3_AA>
2.3

> <PUBCHEM_EXACT_MASS>
790.26841461

> <PUBCHEM_MOLECULAR_FORMULA>
C38H46O18

> <PUBCHEM_MOLECULAR_WEIGHT>
790.8

> <PUBCHEM_OPENEYE_CAN_SMILES>
CC(=O)OCC1C(C(C(C(O1)OC2=C(C=C(C=C2OC)C3C4COC(C4CO3)C5=CC(=C(C(=C5)OC)OC(=O)C)OC)OC)OC(=O)C)OC(=O)C)OC(=O)C

> <PUBCHEM_OPENEYE_ISO_SMILES>
CC(=O)OC[C@@H]1[C@H]([C@@H]([C@H]([C@@H](O1)OC2=C(C=C(C=C2OC)[C@@H]3[C@H]4CO[C@@H]([C@H]4CO3)C5=CC(=C(C(=C5)OC)OC(=O)C)OC)OC)OC(=O)C)OC(=O)C)OC(=O)C

> <PUBCHEM_CACTVS_TPSA>
205

> <PUBCHEM_MONOISOTOPIC_WEIGHT>
790.26841461

> <PUBCHEM_TOTAL_CHARGE>
0

> <PUBCHEM_HEAVY_ATOM_COUNT>
56

> <PUBCHEM_ATOM_DEF_STEREO_COUNT>
9

> <PUBCHEM_ATOM_UDEF_STEREO_COUNT>
0

> <PUBCHEM_BOND_DEF_STEREO_COUNT>
0

> <PUBCHEM_BOND_UDEF_STEREO_COUNT>
0

> <PUBCHEM_ISOTOPIC_ATOM_COUNT>
0

> <PUBCHEM_COMPONENT_COUNT>
1

> <PUBCHEM_CACTVS_TAUTO_COUNT>
-1

> <PUBCHEM_COORDINATE_TYPE>
1
5
255

> <PUBCHEM_BONDANNOTATIONS>
38  10  5
40  11  6
19  57  5
20  58  5
21  25  5
22  26  5
25  27  8
25  28  8
26  29  8
26  30  8
27  32  8
28  31  8
29  35  8
36  3  5
30  34  8
31  33  8
32  33  8
34  39  8
35  39  8
41  42  5
37  9  6

$$$$
