 
  -OEChem-10192104342D

 50 49  0     1  0  0  0  0  0999 V2000
    2.5369    1.5600    0.0000 O   0  0  0  0  0  0  0  0  0  0  0  0
   10.3312    1.0600    0.0000 O   0  0  0  0  0  0  0  0  0  0  0  0
    3.4030    0.0600    0.0000 O   0  0  0  0  0  0  0  0  0  0  0  0
    9.4651    2.5600    0.0000 O   0  0  0  0  0  0  0  0  0  0  0  0
    2.5369   -3.4400    0.0000 O   0  0  0  0  0  0  0  0  0  0  0  0
    4.2690   -3.4400    0.0000 O   0  0  0  0  0  0  0  0  0  0  0  0
    5.1350    1.0600    0.0000 C   0  0  3  0  0  0  0  0  0  0  0  0
    6.0010    1.5600    0.0000 C   0  0  0  0  0  0  0  0  0  0  0  0
    7.7331    1.5600    0.0000 C   0  0  3  0  0  0  0  0  0  0  0  0
    6.8671    1.0600    0.0000 C   0  0  0  0  0  0  0  0  0  0  0  0
    5.1350    0.0600    0.0000 C   0  0  0  0  0  0  0  0  0  0  0  0
    7.7331    2.5600    0.0000 C   0  0  0  0  0  0  0  0  0  0  0  0
    4.2690    1.5600    0.0000 C   0  0  0  0  0  0  0  0  0  0  0  0
    4.2690   -0.4400    0.0000 C   0  0  0  0  0  0  0  0  0  0  0  0
    8.5991    1.0600    0.0000 C   0  0  0  0  0  0  0  0  0  0  0  0
    8.5991    3.0600    0.0000 C   0  0  0  0  0  0  0  0  0  0  0  0
    4.2690   -1.4400    0.0000 C   0  0  0  0  0  0  0  0  0  0  0  0
    3.4030    1.0600    0.0000 C   0  0  0  0  0  0  0  0  0  0  0  0
    9.4651    1.5600    0.0000 C   0  0  0  0  0  0  0  0  0  0  0  0
    3.4030   -1.9400    0.0000 C   0  0  0  0  0  0  0  0  0  0  0  0
    8.5991    4.0600    0.0000 C   0  0  0  0  0  0  0  0  0  0  0  0
    3.4030   -2.9400    0.0000 C   0  0  0  0  0  0  0  0  0  0  0  0
    5.1350    1.6800    0.0000 H   0  0  0  0  0  0  0  0  0  0  0  0
    6.3996    2.0349    0.0000 H   0  0  0  0  0  0  0  0  0  0  0  0
    5.6025    2.0349    0.0000 H   0  0  0  0  0  0  0  0  0  0  0  0
    7.7331    0.9400    0.0000 H   0  0  0  0  0  0  0  0  0  0  0  0
    6.4685    0.5851    0.0000 H   0  0  0  0  0  0  0  0  0  0  0  0
    7.2656    0.5851    0.0000 H   0  0  0  0  0  0  0  0  0  0  0  0
    5.3471   -0.5226    0.0000 H   0  0  0  0  0  0  0  0  0  0  0  0
    5.7456    0.1677    0.0000 H   0  0  0  0  0  0  0  0  0  0  0  0
    7.5210    3.1426    0.0000 H   0  0  0  0  0  0  0  0  0  0  0  0
    7.1225    2.4523    0.0000 H   0  0  0  0  0  0  0  0  0  0  0  0
    4.6675    2.0349    0.0000 H   0  0  0  0  0  0  0  0  0  0  0  0
    3.8705    2.0349    0.0000 H   0  0  0  0  0  0  0  0  0  0  0  0
    4.0569    0.1426    0.0000 H   0  0  0  0  0  0  0  0  0  0  0  0
    3.6584   -0.5477    0.0000 H   0  0  0  0  0  0  0  0  0  0  0  0
    8.2006    0.5851    0.0000 H   0  0  0  0  0  0  0  0  0  0  0  0
    8.9976    0.5851    0.0000 H   0  0  0  0  0  0  0  0  0  0  0  0
    8.8112    2.4774    0.0000 H   0  0  0  0  0  0  0  0  0  0  0  0
    9.2097    3.1677    0.0000 H   0  0  0  0  0  0  0  0  0  0  0  0
    4.4810   -2.0226    0.0000 H   0  0  0  0  0  0  0  0  0  0  0  0
    4.8796   -1.3323    0.0000 H   0  0  0  0  0  0  0  0  0  0  0  0
    3.1909   -1.3574    0.0000 H   0  0  0  0  0  0  0  0  0  0  0  0
    2.7924   -2.0477    0.0000 H   0  0  0  0  0  0  0  0  0  0  0  0
    9.2191    4.0600    0.0000 H   0  0  0  0  0  0  0  0  0  0  0  0
    8.5991    4.6800    0.0000 H   0  0  0  0  0  0  0  0  0  0  0  0
    7.9791    4.0600    0.0000 H   0  0  0  0  0  0  0  0  0  0  0  0
    2.0000    1.2500    0.0000 H   0  0  0  0  0  0  0  0  0  0  0  0
   10.8681    1.3700    0.0000 H   0  0  0  0  0  0  0  0  0  0  0  0
    2.5369   -4.0600    0.0000 H   0  0  0  0  0  0  0  0  0  0  0  0
  1 18  1  0  0  0  0
  1 48  1  0  0  0  0
  2 19  1  0  0  0  0
  2 49  1  0  0  0  0
  3 18  2  0  0  0  0
  4 19  2  0  0  0  0
  5 22  1  0  0  0  0
  5 50  1  0  0  0  0
  6 22  2  0  0  0  0
  7  8  1  0  0  0  0
  7 11  1  0  0  0  0
  7 13  1  0  0  0  0
  7 23  1  0  0  0  0
  8 10  1  0  0  0  0
  8 24  1  0  0  0  0
  8 25  1  0  0  0  0
  9 10  1  0  0  0  0
  9 12  1  0  0  0  0
  9 15  1  0  0  0  0
  9 26  1  0  0  0  0
 10 27  1  0  0  0  0
 10 28  1  0  0  0  0
 11 14  1  0  0  0  0
 11 29  1  0  0  0  0
 11 30  1  0  0  0  0
 12 16  1  0  0  0  0
 12 31  1  0  0  0  0
 12 32  1  0  0  0  0
 13 18  1  0  0  0  0
 13 33  1  0  0  0  0
 13 34  1  0  0  0  0
 14 17  1  0  0  0  0
 14 35  1  0  0  0  0
 14 36  1  0  0  0  0
 15 19  1  0  0  0  0
 15 37  1  0  0  0  0
 15 38  1  0  0  0  0
 16 21  1  0  0  0  0
 16 39  1  0  0  0  0
 16 40  1  0  0  0  0
 17 20  1  0  0  0  0
 17 41  1  0  0  0  0
 17 42  1  0  0  0  0
 20 22  1  0  0  0  0
 20 43  1  0  0  0  0
 20 44  1  0  0  0  0
 21 45  1  0  0  0  0
 21 46  1  0  0  0  0
 21 47  1  0  0  0  0
M  END
> <PUBCHEM_COMPOUND_CID>
53931246

> <PUBCHEM_COMPOUND_CANONICALIZED>
1

> <PUBCHEM_CACTVS_COMPLEXITY>
353

> <PUBCHEM_CACTVS_HBOND_ACCEPTOR>
6

> <PUBCHEM_CACTVS_HBOND_DONOR>
3

> <PUBCHEM_CACTVS_ROTATABLE_BOND>
14

> <PUBCHEM_CACTVS_SUBSKEYS>
AAADceB4OAAAAAAAAAAAAAAAAAAAAAAAAAAAAAAAAAAAAAAAAAAAGgAACAAADQCAgAACCAAAAgAIAACQCAAAAAAAAAAAAAEAAAAAABIAAAAAQAAEAAAAAAGIyOCOAAAAAAAAAAAAAAAAAAAAAAAAAAAAAA==

> <PUBCHEM_IUPAC_OPENEYE_NAME>
6-(carboxymethyl)-3-propyl-undecanedioic acid

> <PUBCHEM_IUPAC_CAS_NAME>
6-(carboxymethyl)-3-propylundecanedioic acid

> <PUBCHEM_IUPAC_NAME_MARKUP>
6-(carboxymethyl)-3-propylundecanedioic acid

> <PUBCHEM_IUPAC_NAME>
6-(carboxymethyl)-3-propylundecanedioic acid

> <PUBCHEM_IUPAC_SYSTEMATIC_NAME>
6-(2-hydroxy-2-oxoethyl)-3-propyl-undecanedioic acid

> <PUBCHEM_IUPAC_TRADITIONAL_NAME>
6-(carboxymethyl)-3-propyl-undecanedioic acid

> <PUBCHEM_IUPAC_INCHI>
InChI=1S/C16H28O6/c1-2-5-12(10-15(19)20)8-9-13(11-16(21)22)6-3-4-7-14(17)18/h12-13H,2-11H2,1H3,(H,17,18)(H,19,20)(H,21,22)

> <PUBCHEM_IUPAC_INCHIKEY>
IRGIXROXSDLTBE-UHFFFAOYSA-N

> <PUBCHEM_XLOGP3_AA>
3.4

> <PUBCHEM_EXACT_MASS>
316.18858861

> <PUBCHEM_MOLECULAR_FORMULA>
C16H28O6

> <PUBCHEM_MOLECULAR_WEIGHT>
316.39

> <PUBCHEM_OPENEYE_CAN_SMILES>
CCCC(CCC(CCCCC(=O)O)CC(=O)O)CC(=O)O

> <PUBCHEM_OPENEYE_ISO_SMILES>
CCCC(CCC(CCCCC(=O)O)CC(=O)O)CC(=O)O

> <PUBCHEM_CACTVS_TPSA>
112

> <PUBCHEM_MONOISOTOPIC_WEIGHT>
316.18858861

> <PUBCHEM_TOTAL_CHARGE>
0

> <PUBCHEM_HEAVY_ATOM_COUNT>
22

> <PUBCHEM_ATOM_DEF_STEREO_COUNT>
0

> <PUBCHEM_ATOM_UDEF_STEREO_COUNT>
2

> <PUBCHEM_BOND_DEF_STEREO_COUNT>
0

> <PUBCHEM_BOND_UDEF_STEREO_COUNT>
0

> <PUBCHEM_ISOTOPIC_ATOM_COUNT>
0

> <PUBCHEM_COMPONENT_COUNT>
1

> <PUBCHEM_CACTVS_TAUTO_COUNT>
-1

> <PUBCHEM_COORDINATE_TYPE>
1
5
255

> <PUBCHEM_BONDANNOTATIONS>
7  11  3
9  12  3

$$$$
