 
  -OEChem-10192103442D

 25 25  0     1  0  0  0  0  0999 V2000
    5.0298   -0.5357    0.0000 O   0  0  0  0  0  0  0  0  0  0  0  0
    2.4608   -0.2266    0.0000 O   0  0  0  0  0  0  0  0  0  0  0  0
    3.1330   -2.2957    0.0000 O   0  0  0  0  0  0  0  0  0  0  0  0
    3.3548    1.5521    0.0000 O   0  0  0  0  0  0  0  0  0  0  0  0
    5.0868    2.5521    0.0000 O   0  0  0  0  0  0  0  0  0  0  0  0
    5.9529    1.0521    0.0000 O   0  0  0  0  0  0  0  0  0  0  0  0
    4.2208    0.0521    0.0000 C   0  0  2  0  0  0  0  0  0  0  0  0
    3.4118   -0.5357    0.0000 C   0  0  1  0  0  0  0  0  0  0  0  0
    3.7208   -1.4867    0.0000 C   0  0  2  0  0  0  0  0  0  0  0  0
    4.7208   -1.4867    0.0000 C   0  0  0  0  0  0  0  0  0  0  0  0
    4.2208    1.0521    0.0000 C   0  0  3  0  0  0  0  0  0  0  0  0
    5.0868    1.5521    0.0000 C   0  0  0  0  0  0  0  0  0  0  0  0
    3.3548    2.5521    0.0000 C   0  0  0  0  0  0  0  0  0  0  0  0
    4.7732    0.3336    0.0000 H   0  0  0  0  0  0  0  0  0  0  0  0
    3.3148    0.0767    0.0000 H   0  0  0  0  0  0  0  0  0  0  0  0
    3.1085   -1.3897    0.0000 H   0  0  0  0  0  0  0  0  0  0  0  0
    4.6560   -2.1033    0.0000 H   0  0  0  0  0  0  0  0  0  0  0  0
    5.3273   -1.6156    0.0000 H   0  0  0  0  0  0  0  0  0  0  0  0
    4.2208    1.6721    0.0000 H   0  0  0  0  0  0  0  0  0  0  0  0
    2.0000   -0.6415    0.0000 H   0  0  0  0  0  0  0  0  0  0  0  0
    3.3852   -2.8621    0.0000 H   0  0  0  0  0  0  0  0  0  0  0  0
    3.9748    2.5521    0.0000 H   0  0  0  0  0  0  0  0  0  0  0  0
    3.3548    3.1721    0.0000 H   0  0  0  0  0  0  0  0  0  0  0  0
    2.7348    2.5521    0.0000 H   0  0  0  0  0  0  0  0  0  0  0  0
    5.6238    2.8621    0.0000 H   0  0  0  0  0  0  0  0  0  0  0  0
  1  7  1  0  0  0  0
  1 10  1  0  0  0  0
  8  2  1  1  0  0  0
  2 20  1  0  0  0  0
  9  3  1  6  0  0  0
  3 21  1  0  0  0  0
  4 11  1  0  0  0  0
  4 13  1  0  0  0  0
  5 12  1  0  0  0  0
  5 25  1  0  0  0  0
  6 12  2  0  0  0  0
  7  8  1  0  0  0  0
  7 11  1  6  0  0  0
  7 14  1  0  0  0  0
  8  9  1  0  0  0  0
  8 15  1  0  0  0  0
  9 10  1  0  0  0  0
  9 16  1  0  0  0  0
 10 17  1  0  0  0  0
 10 18  1  0  0  0  0
 11 12  1  0  0  0  0
 11 19  1  0  0  0  0
 13 22  1  0  0  0  0
 13 23  1  0  0  0  0
 13 24  1  0  0  0  0
M  END
> <PUBCHEM_COMPOUND_CID>
130944292

> <PUBCHEM_COMPOUND_CANONICALIZED>
1

> <PUBCHEM_CACTVS_COMPLEXITY>
193

> <PUBCHEM_CACTVS_HBOND_ACCEPTOR>
6

> <PUBCHEM_CACTVS_HBOND_DONOR>
3

> <PUBCHEM_CACTVS_ROTATABLE_BOND>
3

> <PUBCHEM_CACTVS_SUBSKEYS>
AAADccBgOAAAAAAAAAAAAAAAAAAAASAAAAAAAAAAAAAAAAAAAAAAGgAACAAACBSggAICCAAABgAIAACQCAIAAAAAAAAAAAFAAAABEBYAAAQCQAAFIAADAAHKbAxAAAAAAAAAAAAAAAAAAAAAAAAAAAAAAA==

> <PUBCHEM_IUPAC_OPENEYE_NAME>
2-[(2R,3R,4S)-3,4-dihydroxytetrahydrofuran-2-yl]-2-methoxy-acetic acid

> <PUBCHEM_IUPAC_CAS_NAME>
2-[(2R,3R,4S)-3,4-dihydroxy-2-oxolanyl]-2-methoxyacetic acid

> <PUBCHEM_IUPAC_NAME_MARKUP>
2-[(2<I>R</I>,3<I>R</I>,4<I>S</I>)-3,4-dihydroxyoxolan-2-yl]-2-methoxyacetic acid

> <PUBCHEM_IUPAC_NAME>
2-[(2R,3R,4S)-3,4-dihydroxyoxolan-2-yl]-2-methoxyacetic acid

> <PUBCHEM_IUPAC_SYSTEMATIC_NAME>
2-[(2R,3R,4S)-3,4-bis(oxidanyl)oxolan-2-yl]-2-methoxy-ethanoic acid

> <PUBCHEM_IUPAC_TRADITIONAL_NAME>
2-[(2R,3R,4S)-3,4-dihydroxytetrahydrofuran-2-yl]-2-methoxy-acetic acid

> <PUBCHEM_IUPAC_INCHI>
InChI=1S/C7H12O6/c1-12-6(7(10)11)5-4(9)3(8)2-13-5/h3-6,8-9H,2H2,1H3,(H,10,11)/t3-,4+,5+,6?/m0/s1

> <PUBCHEM_IUPAC_INCHIKEY>
USEVUOWBDPWZBA-JMSAOHGTSA-N

> <PUBCHEM_XLOGP3_AA>
-1.8

> <PUBCHEM_EXACT_MASS>
192.06338810

> <PUBCHEM_MOLECULAR_FORMULA>
C7H12O6

> <PUBCHEM_MOLECULAR_WEIGHT>
192.17

> <PUBCHEM_OPENEYE_CAN_SMILES>
COC(C1C(C(CO1)O)O)C(=O)O

> <PUBCHEM_OPENEYE_ISO_SMILES>
COC([C@H]1[C@@H]([C@H](CO1)O)O)C(=O)O

> <PUBCHEM_CACTVS_TPSA>
96.2

> <PUBCHEM_MONOISOTOPIC_WEIGHT>
192.06338810

> <PUBCHEM_TOTAL_CHARGE>
0

> <PUBCHEM_HEAVY_ATOM_COUNT>
13

> <PUBCHEM_ATOM_DEF_STEREO_COUNT>
3

> <PUBCHEM_ATOM_UDEF_STEREO_COUNT>
1

> <PUBCHEM_BOND_DEF_STEREO_COUNT>
0

> <PUBCHEM_BOND_UDEF_STEREO_COUNT>
0

> <PUBCHEM_ISOTOPIC_ATOM_COUNT>
0

> <PUBCHEM_COMPONENT_COUNT>
1

> <PUBCHEM_CACTVS_TAUTO_COUNT>
-1

> <PUBCHEM_COORDINATE_TYPE>
1
5
255

> <PUBCHEM_BONDANNOTATIONS>
11  12  3
8  2  5
9  3  6
7  11  6

$$$$
