 
  -OEChem-10192103592D

 92 91  0     1  0  0  0  0  0999 V2000
    8.0622   -1.7500    0.0000 O   0  0  0  0  0  0  0  0  0  0  0  0
    9.7942   -0.7500    0.0000 O   0  0  0  0  0  0  0  0  0  0  0  0
    6.3301   -0.7500    0.0000 O   0  0  0  0  0  0  0  0  0  0  0  0
    9.7942    1.2500    0.0000 O   0  0  0  0  0  0  0  0  0  0  0  0
    6.3301    1.2500    0.0000 O   0  0  0  0  0  0  0  0  0  0  0  0
    6.3301   -1.7500    0.0000 O   0  0  0  0  0  0  0  0  0  0  0  0
   10.6603    0.7500    0.0000 O   0  0  0  0  0  0  0  0  0  0  0  0
    5.4641    0.7500    0.0000 O   0  0  0  0  0  0  0  0  0  0  0  0
    8.9282    2.7500    0.0000 O   0  0  0  0  0  0  0  0  0  0  0  0
    7.1962    2.7500    0.0000 O   0  0  0  0  0  0  0  0  0  0  0  0
    8.0622   -0.7500    0.0000 C   0  0  0  0  0  0  0  0  0  0  0  0
    8.9282   -0.2500    0.0000 C   0  0  3  0  0  0  0  0  0  0  0  0
    7.1962   -0.2500    0.0000 C   0  0  3  0  0  0  0  0  0  0  0  0
    8.9282    0.7500    0.0000 C   0  0  0  0  0  0  0  0  0  0  0  0
    7.1962    0.7500    0.0000 C   0  0  0  0  0  0  0  0  0  0  0  0
    7.1962   -2.2500    0.0000 C   0  0  0  0  0  0  0  0  0  0  0  0
    7.1962   -3.2500    0.0000 C   0  0  0  0  0  0  0  0  0  0  0  0
   10.6603   -0.2500    0.0000 C   0  0  0  0  0  0  0  0  0  0  0  0
    5.4641   -0.2500    0.0000 C   0  0  0  0  0  0  0  0  0  0  0  0
   11.5263   -0.7500    0.0000 C   0  0  0  0  0  0  0  0  0  0  0  0
    4.5981   -0.7500    0.0000 C   0  0  0  0  0  0  0  0  0  0  0  0
    6.3301   -3.7500    0.0000 C   0  0  0  0  0  0  0  0  0  0  0  0
   12.3923   -0.2500    0.0000 C   0  0  0  0  0  0  0  0  0  0  0  0
    3.7320   -0.2500    0.0000 C   0  0  0  0  0  0  0  0  0  0  0  0
    9.7942    2.2500    0.0000 C   0  0  0  0  0  0  0  0  0  0  0  0
    6.3301    2.2500    0.0000 C   0  0  0  0  0  0  0  0  0  0  0  0
    6.3301   -4.7500    0.0000 C   0  0  0  0  0  0  0  0  0  0  0  0
   10.6603    2.7500    0.0000 C   0  0  0  0  0  0  0  0  0  0  0  0
    5.4641    2.7500    0.0000 C   0  0  0  0  0  0  0  0  0  0  0  0
   13.2583   -0.7500    0.0000 C   0  0  0  0  0  0  0  0  0  0  0  0
    2.8660   -0.7500    0.0000 C   0  0  0  0  0  0  0  0  0  0  0  0
   10.6603    3.7500    0.0000 C   0  0  0  0  0  0  0  0  0  0  0  0
    5.4641    3.7500    0.0000 C   0  0  0  0  0  0  0  0  0  0  0  0
   11.5263    4.2500    0.0000 C   0  0  0  0  0  0  0  0  0  0  0  0
    4.5981    4.2500    0.0000 C   0  0  0  0  0  0  0  0  0  0  0  0
    5.4641   -5.2500    0.0000 C   0  0  0  0  0  0  0  0  0  0  0  0
   14.1244   -0.2500    0.0000 C   0  0  0  0  0  0  0  0  0  0  0  0
    2.0000   -0.2500    0.0000 C   0  0  0  0  0  0  0  0  0  0  0  0
   11.5263    5.2500    0.0000 C   0  0  0  0  0  0  0  0  0  0  0  0
    4.5981    5.2500    0.0000 C   0  0  0  0  0  0  0  0  0  0  0  0
    7.5252   -1.0600    0.0000 H   0  0  0  0  0  0  0  0  0  0  0  0
    9.4651    0.0600    0.0000 H   0  0  0  0  0  0  0  0  0  0  0  0
    6.6592    0.0600    0.0000 H   0  0  0  0  0  0  0  0  0  0  0  0
    8.7162    1.3326    0.0000 H   0  0  0  0  0  0  0  0  0  0  0  0
    8.3176    0.6423    0.0000 H   0  0  0  0  0  0  0  0  0  0  0  0
    7.8067    0.6423    0.0000 H   0  0  0  0  0  0  0  0  0  0  0  0
    7.4082    1.3326    0.0000 H   0  0  0  0  0  0  0  0  0  0  0  0
    7.4082   -3.8326    0.0000 H   0  0  0  0  0  0  0  0  0  0  0  0
    7.8067   -3.1423    0.0000 H   0  0  0  0  0  0  0  0  0  0  0  0
   11.1278   -1.2250    0.0000 H   0  0  0  0  0  0  0  0  0  0  0  0
   11.9248   -1.2250    0.0000 H   0  0  0  0  0  0  0  0  0  0  0  0
    4.1996   -1.2250    0.0000 H   0  0  0  0  0  0  0  0  0  0  0  0
    4.9966   -1.2250    0.0000 H   0  0  0  0  0  0  0  0  0  0  0  0
    6.1181   -3.1674    0.0000 H   0  0  0  0  0  0  0  0  0  0  0  0
    5.7196   -3.8577    0.0000 H   0  0  0  0  0  0  0  0  0  0  0  0
   12.7908    0.2249    0.0000 H   0  0  0  0  0  0  0  0  0  0  0  0
   11.9938    0.2249    0.0000 H   0  0  0  0  0  0  0  0  0  0  0  0
    4.1306    0.2249    0.0000 H   0  0  0  0  0  0  0  0  0  0  0  0
    3.3335    0.2249    0.0000 H   0  0  0  0  0  0  0  0  0  0  0  0
    6.5422   -5.3326    0.0000 H   0  0  0  0  0  0  0  0  0  0  0  0
    6.9407   -4.6423    0.0000 H   0  0  0  0  0  0  0  0  0  0  0  0
   10.8723    2.1674    0.0000 H   0  0  0  0  0  0  0  0  0  0  0  0
   11.2708    2.8577    0.0000 H   0  0  0  0  0  0  0  0  0  0  0  0
    4.8535    2.8577    0.0000 H   0  0  0  0  0  0  0  0  0  0  0  0
    5.2520    2.1674    0.0000 H   0  0  0  0  0  0  0  0  0  0  0  0
   12.8598   -1.2250    0.0000 H   0  0  0  0  0  0  0  0  0  0  0  0
   13.6569   -1.2250    0.0000 H   0  0  0  0  0  0  0  0  0  0  0  0
    2.4675   -1.2250    0.0000 H   0  0  0  0  0  0  0  0  0  0  0  0
    3.2646   -1.2250    0.0000 H   0  0  0  0  0  0  0  0  0  0  0  0
   10.4482    4.3326    0.0000 H   0  0  0  0  0  0  0  0  0  0  0  0
   10.0497    3.6423    0.0000 H   0  0  0  0  0  0  0  0  0  0  0  0
    6.0747    3.6423    0.0000 H   0  0  0  0  0  0  0  0  0  0  0  0
    5.6762    4.3326    0.0000 H   0  0  0  0  0  0  0  0  0  0  0  0
   11.7383    3.6674    0.0000 H   0  0  0  0  0  0  0  0  0  0  0  0
   12.1369    4.3577    0.0000 H   0  0  0  0  0  0  0  0  0  0  0  0
    3.9875    4.3577    0.0000 H   0  0  0  0  0  0  0  0  0  0  0  0
    4.3860    3.6674    0.0000 H   0  0  0  0  0  0  0  0  0  0  0  0
    5.1541   -4.7131    0.0000 H   0  0  0  0  0  0  0  0  0  0  0  0
    4.9272   -5.5600    0.0000 H   0  0  0  0  0  0  0  0  0  0  0  0
    5.7741   -5.7869    0.0000 H   0  0  0  0  0  0  0  0  0  0  0  0
   14.4344   -0.7869    0.0000 H   0  0  0  0  0  0  0  0  0  0  0  0
   14.6613    0.0600    0.0000 H   0  0  0  0  0  0  0  0  0  0  0  0
   13.8144    0.2869    0.0000 H   0  0  0  0  0  0  0  0  0  0  0  0
    2.3100    0.2869    0.0000 H   0  0  0  0  0  0  0  0  0  0  0  0
    1.4631    0.0600    0.0000 H   0  0  0  0  0  0  0  0  0  0  0  0
    1.6900   -0.7869    0.0000 H   0  0  0  0  0  0  0  0  0  0  0  0
   12.1463    5.2500    0.0000 H   0  0  0  0  0  0  0  0  0  0  0  0
   11.5263    5.8700    0.0000 H   0  0  0  0  0  0  0  0  0  0  0  0
   10.9063    5.2500    0.0000 H   0  0  0  0  0  0  0  0  0  0  0  0
    5.2181    5.2500    0.0000 H   0  0  0  0  0  0  0  0  0  0  0  0
    4.5981    5.8700    0.0000 H   0  0  0  0  0  0  0  0  0  0  0  0
    3.9781    5.2500    0.0000 H   0  0  0  0  0  0  0  0  0  0  0  0
  1 11  1  0  0  0  0
  1 16  1  0  0  0  0
  2 12  1  0  0  0  0
  2 18  1  0  0  0  0
  3 13  1  0  0  0  0
  3 19  1  0  0  0  0
  4 14  1  0  0  0  0
  4 25  1  0  0  0  0
  5 15  1  0  0  0  0
  5 26  1  0  0  0  0
  6 16  2  0  0  0  0
  7 18  2  0  0  0  0
  8 19  2  0  0  0  0
  9 25  2  0  0  0  0
 10 26  2  0  0  0  0
 11 12  1  0  0  0  0
 11 13  1  0  0  0  0
 11 41  1  0  0  0  0
 12 14  1  0  0  0  0
 12 42  1  0  0  0  0
 13 15  1  0  0  0  0
 13 43  1  0  0  0  0
 14 44  1  0  0  0  0
 14 45  1  0  0  0  0
 15 46  1  0  0  0  0
 15 47  1  0  0  0  0
 16 17  1  0  0  0  0
 17 22  1  0  0  0  0
 17 48  1  0  0  0  0
 17 49  1  0  0  0  0
 18 20  1  0  0  0  0
 19 21  1  0  0  0  0
 20 23  1  0  0  0  0
 20 50  1  0  0  0  0
 20 51  1  0  0  0  0
 21 24  1  0  0  0  0
 21 52  1  0  0  0  0
 21 53  1  0  0  0  0
 22 27  1  0  0  0  0
 22 54  1  0  0  0  0
 22 55  1  0  0  0  0
 23 30  1  0  0  0  0
 23 56  1  0  0  0  0
 23 57  1  0  0  0  0
 24 31  1  0  0  0  0
 24 58  1  0  0  0  0
 24 59  1  0  0  0  0
 25 28  1  0  0  0  0
 26 29  1  0  0  0  0
 27 36  1  0  0  0  0
 27 60  1  0  0  0  0
 27 61  1  0  0  0  0
 28 32  1  0  0  0  0
 28 62  1  0  0  0  0
 28 63  1  0  0  0  0
 29 33  1  0  0  0  0
 29 64  1  0  0  0  0
 29 65  1  0  0  0  0
 30 37  1  0  0  0  0
 30 66  1  0  0  0  0
 30 67  1  0  0  0  0
 31 38  1  0  0  0  0
 31 68  1  0  0  0  0
 31 69  1  0  0  0  0
 32 34  1  0  0  0  0
 32 70  1  0  0  0  0
 32 71  1  0  0  0  0
 33 35  1  0  0  0  0
 33 72  1  0  0  0  0
 33 73  1  0  0  0  0
 34 39  1  0  0  0  0
 34 74  1  0  0  0  0
 34 75  1  0  0  0  0
 35 40  1  0  0  0  0
 35 76  1  0  0  0  0
 35 77  1  0  0  0  0
 36 78  1  0  0  0  0
 36 79  1  0  0  0  0
 36 80  1  0  0  0  0
 37 81  1  0  0  0  0
 37 82  1  0  0  0  0
 37 83  1  0  0  0  0
 38 84  1  0  0  0  0
 38 85  1  0  0  0  0
 38 86  1  0  0  0  0
 39 87  1  0  0  0  0
 39 88  1  0  0  0  0
 39 89  1  0  0  0  0
 40 90  1  0  0  0  0
 40 91  1  0  0  0  0
 40 92  1  0  0  0  0
M  END
> <PUBCHEM_COMPOUND_CID>
117683335

> <PUBCHEM_COMPOUND_CANONICALIZED>
1

> <PUBCHEM_CACTVS_COMPLEXITY>
686

> <PUBCHEM_CACTVS_HBOND_ACCEPTOR>
10

> <PUBCHEM_CACTVS_HBOND_DONOR>
0

> <PUBCHEM_CACTVS_ROTATABLE_BOND>
29

> <PUBCHEM_CACTVS_SUBSKEYS>
AAADcfB4PAAAAAAAAAAAAAAAAAAAAAAAAAAAAAAAAAAAAAAAAAAAGgAAAAAACBSggAICCAAABAAIAACQCAAAAAAAAAAAAAEAAAABABIAAAACAAAFAAACAADIIAgAAAAAAAAAAAAAAAAAAAAAAAAAAAAAAA==

> <PUBCHEM_IUPAC_OPENEYE_NAME>
2,3,4,5-tetra(pentanoyloxy)pentyl pentanoate

> <PUBCHEM_IUPAC_CAS_NAME>
pentanoic acid 2,3,4,5-tetrakis(1-oxopentoxy)pentyl ester

> <PUBCHEM_IUPAC_NAME_MARKUP>
2,3,4,5-tetra(pentanoyloxy)pentyl pentanoate

> <PUBCHEM_IUPAC_NAME>
2,3,4,5-tetra(pentanoyloxy)pentyl pentanoate

> <PUBCHEM_IUPAC_SYSTEMATIC_NAME>
2,3,4,5-tetra(pentanoyloxy)pentyl pentanoate

> <PUBCHEM_IUPAC_TRADITIONAL_NAME>
valeric acid 2,3,4,5-tetravaleryloxypentyl ester

> <PUBCHEM_IUPAC_INCHI>
InChI=1S/C30H52O10/c1-6-11-16-25(31)36-21-23(38-27(33)18-13-8-3)30(40-29(35)20-15-10-5)24(39-28(34)19-14-9-4)22-37-26(32)17-12-7-2/h23-24,30H,6-22H2,1-5H3

> <PUBCHEM_IUPAC_INCHIKEY>
KEOXGLXVOAUFJN-UHFFFAOYSA-N

> <PUBCHEM_XLOGP3_AA>
6.7

> <PUBCHEM_EXACT_MASS>
572.35604785

> <PUBCHEM_MOLECULAR_FORMULA>
C30H52O10

> <PUBCHEM_MOLECULAR_WEIGHT>
572.7

> <PUBCHEM_OPENEYE_CAN_SMILES>
CCCCC(=O)OCC(C(C(COC(=O)CCCC)OC(=O)CCCC)OC(=O)CCCC)OC(=O)CCCC

> <PUBCHEM_OPENEYE_ISO_SMILES>
CCCCC(=O)OCC(C(C(COC(=O)CCCC)OC(=O)CCCC)OC(=O)CCCC)OC(=O)CCCC

> <PUBCHEM_CACTVS_TPSA>
132

> <PUBCHEM_MONOISOTOPIC_WEIGHT>
572.35604785

> <PUBCHEM_TOTAL_CHARGE>
0

> <PUBCHEM_HEAVY_ATOM_COUNT>
40

> <PUBCHEM_ATOM_DEF_STEREO_COUNT>
0

> <PUBCHEM_ATOM_UDEF_STEREO_COUNT>
2

> <PUBCHEM_BOND_DEF_STEREO_COUNT>
0

> <PUBCHEM_BOND_UDEF_STEREO_COUNT>
0

> <PUBCHEM_ISOTOPIC_ATOM_COUNT>
0

> <PUBCHEM_COMPONENT_COUNT>
1

> <PUBCHEM_CACTVS_TAUTO_COUNT>
-1

> <PUBCHEM_COORDINATE_TYPE>
1
5
255

> <PUBCHEM_BONDANNOTATIONS>
12  14  3
13  15  3

$$$$
