 
  -OEChem-10192103342D

 79 83  0     1  0  0  0  0  0999 V2000
    3.8467   -3.6693    0.0000 O   0  0  0  0  0  0  0  0  0  0  0  0
    2.5357   -2.7555    0.0000 O   0  0  0  0  0  0  0  0  0  0  0  0
   11.2187    3.3564    0.0000 O   0  0  0  0  0  0  0  0  0  0  0  0
    9.7088    4.2050    0.0000 O   0  0  0  0  0  0  0  0  0  0  0  0
    7.0628   -1.2032    0.0000 C   0  0  2  0  0  0  0  0  0  0  0  0
    6.1968   -0.7032    0.0000 C   0  0  3  0  0  0  0  0  0  0  0  0
    7.9288   -0.7032    0.0000 C   0  0  3  0  0  0  0  0  0  0  0  0
    5.2868   -1.2100    0.0000 C   0  0  2  0  0  0  0  0  0  0  0  0
    5.2787   -2.2516    0.0000 C   0  0  3  0  0  0  0  0  0  0  0  0
    7.0789   -2.2447    0.0000 C   0  0  0  0  0  0  0  0  0  0  0  0
    7.9288    0.2968    0.0000 C   0  0  0  0  0  0  0  0  0  0  0  0
    8.8228    0.8315    0.0000 C   0  0  1  0  0  0  0  0  0  0  0  0
    9.7288    0.3176    0.0000 C   0  0  1  0  0  0  0  0  0  0  0  0
    6.1808   -2.7724    0.0000 C   0  0  0  0  0  0  0  0  0  0  0  0
    8.8228   -1.2378    0.0000 C   0  0  0  0  0  0  0  0  0  0  0  0
    6.1968    0.2968    0.0000 C   0  0  0  0  0  0  0  0  0  0  0  0
    4.3599   -0.6459    0.0000 C   0  0  0  0  0  0  0  0  0  0  0  0
    4.3433   -2.8013    0.0000 C   0  0  3  0  0  0  0  0  0  0  0  0
    9.7288   -0.7240    0.0000 C   0  0  0  0  0  0  0  0  0  0  0  0
    7.7056   -1.9692    0.0000 C   0  0  0  0  0  0  0  0  0  0  0  0
    7.0628    0.7968    0.0000 C   0  0  0  0  0  0  0  0  0  0  0  0
    8.2709   -1.6428    0.0000 C   0  0  0  0  0  0  0  0  0  0  0  0
    5.2945   -0.2101    0.0000 C   0  0  0  0  0  0  0  0  0  0  0  0
    8.7977    1.9162    0.0000 C   0  0  0  0  0  0  0  0  0  0  0  0
    3.4037   -2.2589    0.0000 C   0  0  2  0  0  0  0  0  0  0  0  0
    3.4120   -1.1739    0.0000 C   0  0  0  0  0  0  0  0  0  0  0  0
   10.6726    0.8529    0.0000 C   0  0  0  0  0  0  0  0  0  0  0  0
    9.7288    2.4731    0.0000 C   0  0  1  0  0  0  0  0  0  0  0  0
   10.6726    1.9379    0.0000 C   0  0  0  0  0  0  0  0  0  0  0  0
   10.5987   -0.1757    0.0000 C   0  0  0  0  0  0  0  0  0  0  0  0
    4.8466   -3.6654    0.0000 C   0  0  0  0  0  0  0  0  0  0  0  0
    9.2188    3.3333    0.0000 C   0  0  0  0  0  0  0  0  0  0  0  0
   10.2188    3.3448    0.0000 C   0  0  0  0  0  0  0  0  0  0  0  0
    6.7337   -0.3932    0.0000 H   0  0  0  0  0  0  0  0  0  0  0  0
    5.2811   -2.8716    0.0000 H   0  0  0  0  0  0  0  0  0  0  0  0
    7.2969   -2.8251    0.0000 H   0  0  0  0  0  0  0  0  0  0  0  0
    7.6880   -2.1292    0.0000 H   0  0  0  0  0  0  0  0  0  0  0  0
    9.5522    1.2678    0.0000 H   0  0  0  0  0  0  0  0  0  0  0  0
    5.7835   -3.2484    0.0000 H   0  0  0  0  0  0  0  0  0  0  0  0
    6.5818   -3.2453    0.0000 H   0  0  0  0  0  0  0  0  0  0  0  0
    8.4182   -1.7076    0.0000 H   0  0  0  0  0  0  0  0  0  0  0  0
    9.2164   -1.7169    0.0000 H   0  0  0  0  0  0  0  0  0  0  0  0
    5.9847    0.8794    0.0000 H   0  0  0  0  0  0  0  0  0  0  0  0
    5.5862    0.1892    0.0000 H   0  0  0  0  0  0  0  0  0  0  0  0
    4.7681   -0.1793    0.0000 H   0  0  0  0  0  0  0  0  0  0  0  0
    3.9700   -0.1639    0.0000 H   0  0  0  0  0  0  0  0  0  0  0  0
    9.9379   -1.3077    0.0000 H   0  0  0  0  0  0  0  0  0  0  0  0
   10.3397   -0.6179    0.0000 H   0  0  0  0  0  0  0  0  0  0  0  0
    7.2306   -2.3678    0.0000 H   0  0  0  0  0  0  0  0  0  0  0  0
    8.1041   -2.4442    0.0000 H   0  0  0  0  0  0  0  0  0  0  0  0
    8.1805   -1.5707    0.0000 H   0  0  0  0  0  0  0  0  0  0  0  0
    7.0628    1.4168    0.0000 H   0  0  0  0  0  0  0  0  0  0  0  0
    7.6884   -1.8550    0.0000 H   0  0  0  0  0  0  0  0  0  0  0  0
    8.4830   -2.2254    0.0000 H   0  0  0  0  0  0  0  0  0  0  0  0
    8.8535   -1.4307    0.0000 H   0  0  0  0  0  0  0  0  0  0  0  0
    5.9145   -0.2148    0.0000 H   0  0  0  0  0  0  0  0  0  0  0  0
    5.2993    0.4099    0.0000 H   0  0  0  0  0  0  0  0  0  0  0  0
    4.6745   -0.2053    0.0000 H   0  0  0  0  0  0  0  0  0  0  0  0
    8.5752    2.4949    0.0000 H   0  0  0  0  0  0  0  0  0  0  0  0
    8.1894    1.7960    0.0000 H   0  0  0  0  0  0  0  0  0  0  0  0
    2.8686   -1.9458    0.0000 H   0  0  0  0  0  0  0  0  0  0  0  0
    3.2075   -0.5886    0.0000 H   0  0  0  0  0  0  0  0  0  0  0  0
    2.8004   -1.2753    0.0000 H   0  0  0  0  0  0  0  0  0  0  0  0
   10.8817    0.2692    0.0000 H   0  0  0  0  0  0  0  0  0  0  0  0
   11.2835    0.9590    0.0000 H   0  0  0  0  0  0  0  0  0  0  0  0
   11.2835    1.8318    0.0000 H   0  0  0  0  0  0  0  0  0  0  0  0
   10.8817    2.5216    0.0000 H   0  0  0  0  0  0  0  0  0  0  0  0
   10.2928   -0.7150    0.0000 H   0  0  0  0  0  0  0  0  0  0  0  0
   11.1380   -0.4815    0.0000 H   0  0  0  0  0  0  0  0  0  0  0  0
   10.9045    0.3636    0.0000 H   0  0  0  0  0  0  0  0  0  0  0  0
    4.3109   -3.9775    0.0000 H   0  0  0  0  0  0  0  0  0  0  0  0
    5.1587   -4.2012    0.0000 H   0  0  0  0  0  0  0  0  0  0  0  0
    5.3824   -3.3534    0.0000 H   0  0  0  0  0  0  0  0  0  0  0  0
    4.1587   -4.2050    0.0000 H   0  0  0  0  0  0  0  0  0  0  0  0
    9.7522    3.6495    0.0000 H   0  0  0  0  0  0  0  0  0  0  0  0
    8.9027    3.8666    0.0000 H   0  0  0  0  0  0  0  0  0  0  0  0
    8.6855    3.0171    0.0000 H   0  0  0  0  0  0  0  0  0  0  0  0
    2.0000   -2.4434    0.0000 H   0  0  0  0  0  0  0  0  0  0  0  0
   11.5225    3.8969    0.0000 H   0  0  0  0  0  0  0  0  0  0  0  0
  1 18  1  0  0  0  0
  1 74  1  0  0  0  0
 25  2  1  1  0  0  0
  2 78  1  0  0  0  0
  3 33  1  0  0  0  0
  3 79  1  0  0  0  0
  4 33  2  0  0  0  0
  5  6  1  0  0  0  0
  5  7  1  0  0  0  0
  5 10  1  0  0  0  0
  5 20  1  1  0  0  0
  6  8  1  0  0  0  0
  6 16  1  0  0  0  0
  6 34  1  0  0  0  0
  7 11  1  0  0  0  0
  7 15  1  0  0  0  0
  7 22  1  0  0  0  0
  8  9  1  0  0  0  0
  8 17  1  0  0  0  0
  8 23  1  1  0  0  0
  9 14  1  0  0  0  0
  9 18  1  0  0  0  0
  9 35  1  0  0  0  0
 10 14  1  0  0  0  0
 10 36  1  0  0  0  0
 10 37  1  0  0  0  0
 11 12  1  0  0  0  0
 11 21  2  0  0  0  0
 12 13  1  0  0  0  0
 12 24  1  0  0  0  0
 12 38  1  1  0  0  0
 13 19  1  0  0  0  0
 13 27  1  0  0  0  0
 13 30  1  1  0  0  0
 14 39  1  0  0  0  0
 14 40  1  0  0  0  0
 15 19  1  0  0  0  0
 15 41  1  0  0  0  0
 15 42  1  0  0  0  0
 16 21  1  0  0  0  0
 16 43  1  0  0  0  0
 16 44  1  0  0  0  0
 17 26  1  0  0  0  0
 17 45  1  0  0  0  0
 17 46  1  0  0  0  0
 18 25  1  0  0  0  0
 18 31  1  0  0  0  0
 19 47  1  0  0  0  0
 19 48  1  0  0  0  0
 20 49  1  0  0  0  0
 20 50  1  0  0  0  0
 20 51  1  0  0  0  0
 21 52  1  0  0  0  0
 22 53  1  0  0  0  0
 22 54  1  0  0  0  0
 22 55  1  0  0  0  0
 23 56  1  0  0  0  0
 23 57  1  0  0  0  0
 23 58  1  0  0  0  0
 24 28  1  0  0  0  0
 24 59  1  0  0  0  0
 24 60  1  0  0  0  0
 25 26  1  0  0  0  0
 25 61  1  0  0  0  0
 26 62  1  0  0  0  0
 26 63  1  0  0  0  0
 27 29  1  0  0  0  0
 27 64  1  0  0  0  0
 27 65  1  0  0  0  0
 28 29  1  0  0  0  0
 28 32  1  6  0  0  0
 28 33  1  0  0  0  0
 29 66  1  0  0  0  0
 29 67  1  0  0  0  0
 30 68  1  0  0  0  0
 30 69  1  0  0  0  0
 30 70  1  0  0  0  0
 31 71  1  0  0  0  0
 31 72  1  0  0  0  0
 31 73  1  0  0  0  0
 32 75  1  0  0  0  0
 32 76  1  0  0  0  0
 32 77  1  0  0  0  0
M  END
> <PUBCHEM_COMPOUND_CID>
5318188

> <PUBCHEM_COMPOUND_CANONICALIZED>
1

> <PUBCHEM_CACTVS_COMPLEXITY>
896

> <PUBCHEM_CACTVS_HBOND_ACCEPTOR>
4

> <PUBCHEM_CACTVS_HBOND_DONOR>
3

> <PUBCHEM_CACTVS_ROTATABLE_BOND>
1

> <PUBCHEM_CACTVS_SUBSKEYS>
AAADcfB4OAAAAAAAAAAAAAAAAAAAAAAAAAAwYMGCAAAAAADAAAAAGgAACAAAD1SggAICCAAAAgCIAiDSCAAAAAAgAAAACAEAAAgBEBIAAQAAQAAEgAAJAAOIyPCPgAAAAAAAAADAAAYAADCAAAAAAAAAAA==

> <PUBCHEM_IUPAC_OPENEYE_NAME>
(2S,4aS,6bR,10S,12aR,14bR)-9,10-dihydroxy-2,4a,6a,6b,9,12a-hexamethyl-1,3,4,5,6,6a,7,8,8a,10,11,12,13,14b-tetradecahydropicene-2-carboxylic acid

> <PUBCHEM_IUPAC_CAS_NAME>
(2S,4aS,6bR,10S,12aR,14bR)-9,10-dihydroxy-2,4a,6a,6b,9,12a-hexamethyl-1,3,4,5,6,6a,7,8,8a,10,11,12,13,14b-tetradecahydropicene-2-carboxylic acid

> <PUBCHEM_IUPAC_NAME_MARKUP>
(2<I>S</I>,4<I>a</I><I>S</I>,6<I>b</I><I>R</I>,10<I>S</I>,12<I>a</I><I>R</I>,14<I>b</I><I>R</I>)-9,10-dihydroxy-2,4<I>a</I>,6<I>a</I>,6<I>b</I>,9,12<I>a</I>-hexamethyl-1,3,4,5,6,6<I>a</I>,7,8,8<I>a</I>,10,11,12,13,14<I>b</I>-tetradecahydropicene-2-carboxylic acid

> <PUBCHEM_IUPAC_NAME>
(2S,4aS,6bR,10S,12aR,14bR)-9,10-dihydroxy-2,4a,6a,6b,9,12a-hexamethyl-1,3,4,5,6,6a,7,8,8a,10,11,12,13,14b-tetradecahydropicene-2-carboxylic acid

> <PUBCHEM_IUPAC_SYSTEMATIC_NAME>
(2S,4aS,6bR,10S,12aR,14bR)-2,4a,6a,6b,9,12a-hexamethyl-9,10-bis(oxidanyl)-1,3,4,5,6,6a,7,8,8a,10,11,12,13,14b-tetradecahydropicene-2-carboxylic acid

> <PUBCHEM_IUPAC_TRADITIONAL_NAME>
(2S,4aS,6bR,10S,12aR,14bR)-9,10-dihydroxy-2,4a,6a,6b,9,12a-hexamethyl-1,3,4,5,6,6a,7,8,8a,10,11,12,13,14b-tetradecahydropicene-2-carboxylic acid

> <PUBCHEM_IUPAC_INCHI>
InChI=1S/C29H46O4/c1-24-13-14-25(2,23(31)32)17-19(24)18-7-8-20-26(3)11-10-22(30)29(6,33)21(26)9-12-28(20,5)27(18,4)16-15-24/h7,19-22,30,33H,8-17H2,1-6H3,(H,31,32)/t19-,20?,21?,22-,24+,25-,26+,27?,28+,29?/m0/s1

> <PUBCHEM_IUPAC_INCHIKEY>
KHABBSONZWLPEN-KEVGFEQESA-N

> <PUBCHEM_XLOGP3_AA>
5.7

> <PUBCHEM_EXACT_MASS>
458.33960994

> <PUBCHEM_MOLECULAR_FORMULA>
C29H46O4

> <PUBCHEM_MOLECULAR_WEIGHT>
458.7

> <PUBCHEM_OPENEYE_CAN_SMILES>
CC12CCC(CC1C3=CCC4C5(CCC(C(C5CCC4(C3(CC2)C)C)(C)O)O)C)(C)C(=O)O

> <PUBCHEM_OPENEYE_ISO_SMILES>
C[C@]12CC[C@](C[C@H]1C3=CCC4[C@]5(CC[C@@H](C(C5CC[C@]4(C3(CC2)C)C)(C)O)O)C)(C)C(=O)O

> <PUBCHEM_CACTVS_TPSA>
77.8

> <PUBCHEM_MONOISOTOPIC_WEIGHT>
458.33960994

> <PUBCHEM_TOTAL_CHARGE>
0

> <PUBCHEM_HEAVY_ATOM_COUNT>
33

> <PUBCHEM_ATOM_DEF_STEREO_COUNT>
6

> <PUBCHEM_ATOM_UDEF_STEREO_COUNT>
4

> <PUBCHEM_BOND_DEF_STEREO_COUNT>
0

> <PUBCHEM_BOND_UDEF_STEREO_COUNT>
0

> <PUBCHEM_ISOTOPIC_ATOM_COUNT>
0

> <PUBCHEM_COMPONENT_COUNT>
1

> <PUBCHEM_CACTVS_TAUTO_COUNT>
-1

> <PUBCHEM_COORDINATE_TYPE>
1
5
255

> <PUBCHEM_BONDANNOTATIONS>
18  1  3
12  38  5
13  30  5
25  2  5
28  32  6
5  20  5
6  16  3
7  22  3
8  23  5
9  14  3

$$$$
