 
  -OEChem-10192104182D

 36 37  0     0  0  0  0  0  0999 V2000
    6.8671    2.7500    0.0000 O   0  0  0  0  0  0  0  0  0  0  0  0
    3.4030    2.7500    0.0000 O   0  0  0  0  0  0  0  0  0  0  0  0
    6.0010   -1.7500    0.0000 O   0  0  0  0  0  0  0  0  0  0  0  0
    2.5369   -1.7500    0.0000 O   0  0  0  0  0  0  0  0  0  0  0  0
    5.1350    0.7500    0.0000 C   0  0  0  0  0  0  0  0  0  0  0  0
    4.2690   -1.7500    0.0000 C   0  0  0  0  0  0  0  0  0  0  0  0
    4.2690    1.2500    0.0000 C   0  0  0  0  0  0  0  0  0  0  0  0
    6.0010    1.2500    0.0000 C   0  0  0  0  0  0  0  0  0  0  0  0
    5.1350   -0.2500    0.0000 C   0  0  0  0  0  0  0  0  0  0  0  0
    6.0010    2.2500    0.0000 C   0  0  0  0  0  0  0  0  0  0  0  0
    4.2690    2.2500    0.0000 C   0  0  0  0  0  0  0  0  0  0  0  0
    4.2690   -0.7500    0.0000 C   0  0  0  0  0  0  0  0  0  0  0  0
    5.1350    2.7500    0.0000 C   0  0  0  0  0  0  0  0  0  0  0  0
    5.1350   -2.2500    0.0000 C   0  0  0  0  0  0  0  0  0  0  0  0
    3.4030   -2.2500    0.0000 C   0  0  0  0  0  0  0  0  0  0  0  0
    5.1350   -3.2500    0.0000 C   0  0  0  0  0  0  0  0  0  0  0  0
    3.4030   -3.2500    0.0000 C   0  0  0  0  0  0  0  0  0  0  0  0
    4.2690   -3.7500    0.0000 C   0  0  0  0  0  0  0  0  0  0  0  0
    6.8671    3.7500    0.0000 C   0  0  0  0  0  0  0  0  0  0  0  0
    3.4030    3.7500    0.0000 C   0  0  0  0  0  0  0  0  0  0  0  0
    3.7320    0.9400    0.0000 H   0  0  0  0  0  0  0  0  0  0  0  0
    6.5380    0.9400    0.0000 H   0  0  0  0  0  0  0  0  0  0  0  0
    5.6720   -0.5600    0.0000 H   0  0  0  0  0  0  0  0  0  0  0  0
    3.7320   -0.4400    0.0000 H   0  0  0  0  0  0  0  0  0  0  0  0
    5.1350    3.3700    0.0000 H   0  0  0  0  0  0  0  0  0  0  0  0
    5.6720   -3.5600    0.0000 H   0  0  0  0  0  0  0  0  0  0  0  0
    2.8660   -3.5600    0.0000 H   0  0  0  0  0  0  0  0  0  0  0  0
    4.2690   -4.3700    0.0000 H   0  0  0  0  0  0  0  0  0  0  0  0
    7.4871    3.7500    0.0000 H   0  0  0  0  0  0  0  0  0  0  0  0
    6.8671    4.3700    0.0000 H   0  0  0  0  0  0  0  0  0  0  0  0
    6.2471    3.7500    0.0000 H   0  0  0  0  0  0  0  0  0  0  0  0
    4.0230    3.7500    0.0000 H   0  0  0  0  0  0  0  0  0  0  0  0
    3.4030    4.3700    0.0000 H   0  0  0  0  0  0  0  0  0  0  0  0
    2.7830    3.7500    0.0000 H   0  0  0  0  0  0  0  0  0  0  0  0
    6.5380   -2.0600    0.0000 H   0  0  0  0  0  0  0  0  0  0  0  0
    2.0000   -2.0600    0.0000 H   0  0  0  0  0  0  0  0  0  0  0  0
  1 10  1  0  0  0  0
  1 19  1  0  0  0  0
  2 11  1  0  0  0  0
  2 20  1  0  0  0  0
  3 14  1  0  0  0  0
  3 35  1  0  0  0  0
  4 15  1  0  0  0  0
  4 36  1  0  0  0  0
  5  7  2  0  0  0  0
  5  8  1  0  0  0  0
  5  9  1  0  0  0  0
  6 12  1  0  0  0  0
  6 14  2  0  0  0  0
  6 15  1  0  0  0  0
  7 11  1  0  0  0  0
  7 21  1  0  0  0  0
  8 10  2  0  0  0  0
  8 22  1  0  0  0  0
  9 12  2  0  0  0  0
  9 23  1  0  0  0  0
 10 13  1  0  0  0  0
 11 13  2  0  0  0  0
 12 24  1  0  0  0  0
 13 25  1  0  0  0  0
 14 16  1  0  0  0  0
 15 17  2  0  0  0  0
 16 18  2  0  0  0  0
 16 26  1  0  0  0  0
 17 18  1  0  0  0  0
 17 27  1  0  0  0  0
 18 28  1  0  0  0  0
 19 29  1  0  0  0  0
 19 30  1  0  0  0  0
 19 31  1  0  0  0  0
 20 32  1  0  0  0  0
 20 33  1  0  0  0  0
 20 34  1  0  0  0  0
M  END
> <PUBCHEM_COMPOUND_CID>
133561467

> <PUBCHEM_COMPOUND_CANONICALIZED>
1

> <PUBCHEM_CACTVS_COMPLEXITY>
296

> <PUBCHEM_CACTVS_HBOND_ACCEPTOR>
4

> <PUBCHEM_CACTVS_HBOND_DONOR>
2

> <PUBCHEM_CACTVS_ROTATABLE_BOND>
4

> <PUBCHEM_CACTVS_SUBSKEYS>
AAADceB4OAAAAAAAAAAAAAAAAAAAAAAAAAAwYAAAAAAAAAABQAAAGgAACAAADASAmAIyBoAABgCAAiBCAAACCAAgIAAIiAAGCIgMJyKGMRqAcCAlwBUIuAeA4DwOAAABCAAIAAAAAAIQABAAAAAAAAAAAA==

> <PUBCHEM_IUPAC_OPENEYE_NAME>
2-[(E)-2-(3,5-dimethoxyphenyl)vinyl]benzene-1,3-diol

> <PUBCHEM_IUPAC_CAS_NAME>
2-[(E)-2-(3,5-dimethoxyphenyl)ethenyl]benzene-1,3-diol

> <PUBCHEM_IUPAC_NAME_MARKUP>
2-[(<I>E</I>)-2-(3,5-dimethoxyphenyl)ethenyl]benzene-1,3-diol

> <PUBCHEM_IUPAC_NAME>
2-[(E)-2-(3,5-dimethoxyphenyl)ethenyl]benzene-1,3-diol

> <PUBCHEM_IUPAC_SYSTEMATIC_NAME>
2-[(E)-2-(3,5-dimethoxyphenyl)ethenyl]benzene-1,3-diol

> <PUBCHEM_IUPAC_TRADITIONAL_NAME>
2-[(E)-2-(3,5-dimethoxyphenyl)vinyl]resorcinol

> <PUBCHEM_IUPAC_INCHI>
InChI=1S/C16H16O4/c1-19-12-8-11(9-13(10-12)20-2)6-7-14-15(17)4-3-5-16(14)18/h3-10,17-18H,1-2H3/b7-6+

> <PUBCHEM_IUPAC_INCHIKEY>
LVZHDEGYUWYCSR-VOTSOKGWSA-N

> <PUBCHEM_XLOGP3_AA>
3.4

> <PUBCHEM_EXACT_MASS>
272.10485899

> <PUBCHEM_MOLECULAR_FORMULA>
C16H16O4

> <PUBCHEM_MOLECULAR_WEIGHT>
272.29

> <PUBCHEM_OPENEYE_CAN_SMILES>
COC1=CC(=CC(=C1)C=CC2=C(C=CC=C2O)O)OC

> <PUBCHEM_OPENEYE_ISO_SMILES>
COC1=CC(=CC(=C1)/C=C/C2=C(C=CC=C2O)O)OC

> <PUBCHEM_CACTVS_TPSA>
58.9

> <PUBCHEM_MONOISOTOPIC_WEIGHT>
272.10485899

> <PUBCHEM_TOTAL_CHARGE>
0

> <PUBCHEM_HEAVY_ATOM_COUNT>
20

> <PUBCHEM_ATOM_DEF_STEREO_COUNT>
0

> <PUBCHEM_ATOM_UDEF_STEREO_COUNT>
0

> <PUBCHEM_BOND_DEF_STEREO_COUNT>
1

> <PUBCHEM_BOND_UDEF_STEREO_COUNT>
0

> <PUBCHEM_ISOTOPIC_ATOM_COUNT>
0

> <PUBCHEM_COMPONENT_COUNT>
1

> <PUBCHEM_CACTVS_TAUTO_COUNT>
-1

> <PUBCHEM_COORDINATE_TYPE>
1
5
255

> <PUBCHEM_BONDANNOTATIONS>
10  13  8
11  13  8
14  16  8
15  17  8
16  18  8
17  18  8
5  7  8
5  8  8
6  14  8
6  15  8
7  11  8
8  10  8

$$$$
