 
  -OEChem-10192104142D

 37 38  0     1  0  0  0  0  0999 V2000
    3.7320    0.9050    0.0000 S   0  0  0  0  0  0  0  0  0  0  0  0
    6.3301   -1.5950    0.0000 S   0  0  0  0  0  0  0  0  0  0  0  0
    4.7320    0.9050    0.0000 O   0  0  0  0  0  0  0  0  0  0  0  0
    2.7320    0.9050    0.0000 O   0  0  0  0  0  0  0  0  0  0  0  0
    3.7320    1.9050    0.0000 N   0  0  3  0  0  0  0  0  0  0  0  0
    5.4641   -3.0950    0.0000 N   0  0  0  0  0  0  0  0  0  0  0  0
    4.5981    2.4050    0.0000 C   0  0  0  0  0  0  0  0  0  0  0  0
    5.5981    2.4050    0.0000 C   0  0  0  0  0  0  0  0  0  0  0  0
    5.0981    3.2710    0.0000 C   0  0  0  0  0  0  0  0  0  0  0  0
    2.8660    2.4050    0.0000 C   0  0  0  0  0  0  0  0  0  0  0  0
    3.7320   -0.0950    0.0000 C   0  0  0  0  0  0  0  0  0  0  0  0
    2.8660    3.4050    0.0000 C   0  0  0  0  0  0  0  0  0  0  0  0
    2.8660   -0.5950    0.0000 C   0  0  0  0  0  0  0  0  0  0  0  0
    4.5981   -0.5950    0.0000 C   0  0  0  0  0  0  0  0  0  0  0  0
    4.5981   -1.5950    0.0000 C   0  0  0  0  0  0  0  0  0  0  0  0
    2.8660   -1.5950    0.0000 C   0  0  0  0  0  0  0  0  0  0  0  0
    2.0000   -0.0950    0.0000 C   0  0  0  0  0  0  0  0  0  0  0  0
    3.7320   -2.0950    0.0000 C   0  0  0  0  0  0  0  0  0  0  0  0
    5.4641   -2.0950    0.0000 C   0  0  0  0  0  0  0  0  0  0  0  0
    4.7585    1.8061    0.0000 H   0  0  0  0  0  0  0  0  0  0  0  0
    5.7057    1.7944    0.0000 H   0  0  0  0  0  0  0  0  0  0  0  0
    6.1807    2.6170    0.0000 H   0  0  0  0  0  0  0  0  0  0  0  0
    5.5730    3.6696    0.0000 H   0  0  0  0  0  0  0  0  0  0  0  0
    4.6231    3.6696    0.0000 H   0  0  0  0  0  0  0  0  0  0  0  0
    2.2554    2.5127    0.0000 H   0  0  0  0  0  0  0  0  0  0  0  0
    2.6540    1.8224    0.0000 H   0  0  0  0  0  0  0  0  0  0  0  0
    3.4860    3.4050    0.0000 H   0  0  0  0  0  0  0  0  0  0  0  0
    2.8660    4.0250    0.0000 H   0  0  0  0  0  0  0  0  0  0  0  0
    2.2460    3.4050    0.0000 H   0  0  0  0  0  0  0  0  0  0  0  0
    5.1350   -0.2850    0.0000 H   0  0  0  0  0  0  0  0  0  0  0  0
    2.3291   -1.9050    0.0000 H   0  0  0  0  0  0  0  0  0  0  0  0
    2.3100    0.4419    0.0000 H   0  0  0  0  0  0  0  0  0  0  0  0
    1.4631    0.2150    0.0000 H   0  0  0  0  0  0  0  0  0  0  0  0
    1.6900   -0.6319    0.0000 H   0  0  0  0  0  0  0  0  0  0  0  0
    3.7320   -2.7150    0.0000 H   0  0  0  0  0  0  0  0  0  0  0  0
    6.0010   -3.4050    0.0000 H   0  0  0  0  0  0  0  0  0  0  0  0
    4.9272   -3.4050    0.0000 H   0  0  0  0  0  0  0  0  0  0  0  0
  1  3  2  0  0  0  0
  1  4  2  0  0  0  0
  1  5  1  0  0  0  0
  1 11  1  0  0  0  0
  2 19  2  0  0  0  0
  5  7  1  0  0  0  0
  5 10  1  0  0  0  0
  6 19  1  0  0  0  0
  6 36  1  0  0  0  0
  6 37  1  0  0  0  0
  7  8  1  0  0  0  0
  7  9  1  0  0  0  0
  7 20  1  0  0  0  0
  8  9  1  0  0  0  0
  8 21  1  0  0  0  0
  8 22  1  0  0  0  0
  9 23  1  0  0  0  0
  9 24  1  0  0  0  0
 10 12  1  0  0  0  0
 10 25  1  0  0  0  0
 10 26  1  0  0  0  0
 11 13  2  0  0  0  0
 11 14  1  0  0  0  0
 12 27  1  0  0  0  0
 12 28  1  0  0  0  0
 12 29  1  0  0  0  0
 13 16  1  0  0  0  0
 13 17  1  0  0  0  0
 14 15  2  0  0  0  0
 14 30  1  0  0  0  0
 15 18  1  0  0  0  0
 15 19  1  0  0  0  0
 16 18  2  0  0  0  0
 16 31  1  0  0  0  0
 17 32  1  0  0  0  0
 17 33  1  0  0  0  0
 17 34  1  0  0  0  0
 18 35  1  0  0  0  0
M  END
> <PUBCHEM_COMPOUND_CID>
64170811

> <PUBCHEM_COMPOUND_CANONICALIZED>
1

> <PUBCHEM_CACTVS_COMPLEXITY>
440

> <PUBCHEM_CACTVS_HBOND_ACCEPTOR>
4

> <PUBCHEM_CACTVS_HBOND_DONOR>
1

> <PUBCHEM_CACTVS_ROTATABLE_BOND>
5

> <PUBCHEM_CACTVS_SUBSKEYS>
AAADceBzMABgAAAAAAAAAAAAGAAAAAAAAAAwAAAAAAAAAAABAAAAHAQQQAAADCjBWAQyAYJAAAKEAiBCAHDCABAgAAEIiBgIBIgIICKAkRGEIABggACIiAcQgAAOQAAAgAAEAACAAAEAAAgAAAAAAAAAAA==

> <PUBCHEM_IUPAC_OPENEYE_NAME>
3-[cyclopropyl(ethyl)sulfamoyl]-4-methyl-benzenecarbothioamide

> <PUBCHEM_IUPAC_CAS_NAME>
3-[cyclopropyl(ethyl)sulfamoyl]-4-methylbenzenecarbothioamide

> <PUBCHEM_IUPAC_NAME_MARKUP>
3-[cyclopropyl(ethyl)sulfamoyl]-4-methylbenzenecarbothioamide

> <PUBCHEM_IUPAC_NAME>
3-[cyclopropyl(ethyl)sulfamoyl]-4-methylbenzenecarbothioamide

> <PUBCHEM_IUPAC_SYSTEMATIC_NAME>
3-[cyclopropyl(ethyl)sulfamoyl]-4-methyl-benzenecarbothioamide

> <PUBCHEM_IUPAC_TRADITIONAL_NAME>
3-[cyclopropyl(ethyl)sulfamoyl]-4-methyl-thiobenzamide

> <PUBCHEM_IUPAC_INCHI>
InChI=1S/C13H18N2O2S2/c1-3-15(11-6-7-11)19(16,17)12-8-10(13(14)18)5-4-9(12)2/h4-5,8,11H,3,6-7H2,1-2H3,(H2,14,18)

> <PUBCHEM_IUPAC_INCHIKEY>
PHXIZRZWMGLVGP-UHFFFAOYSA-N

> <PUBCHEM_XLOGP3_AA>
1.8

> <PUBCHEM_EXACT_MASS>
298.08097017

> <PUBCHEM_MOLECULAR_FORMULA>
C13H18N2O2S2

> <PUBCHEM_MOLECULAR_WEIGHT>
298.4

> <PUBCHEM_OPENEYE_CAN_SMILES>
CCN(C1CC1)S(=O)(=O)C2=C(C=CC(=C2)C(=S)N)C

> <PUBCHEM_OPENEYE_ISO_SMILES>
CCN(C1CC1)S(=O)(=O)C2=C(C=CC(=C2)C(=S)N)C

> <PUBCHEM_CACTVS_TPSA>
104

> <PUBCHEM_MONOISOTOPIC_WEIGHT>
298.08097017

> <PUBCHEM_TOTAL_CHARGE>
0

> <PUBCHEM_HEAVY_ATOM_COUNT>
19

> <PUBCHEM_ATOM_DEF_STEREO_COUNT>
0

> <PUBCHEM_ATOM_UDEF_STEREO_COUNT>
0

> <PUBCHEM_BOND_DEF_STEREO_COUNT>
0

> <PUBCHEM_BOND_UDEF_STEREO_COUNT>
0

> <PUBCHEM_ISOTOPIC_ATOM_COUNT>
0

> <PUBCHEM_COMPONENT_COUNT>
1

> <PUBCHEM_CACTVS_TAUTO_COUNT>
-1

> <PUBCHEM_COORDINATE_TYPE>
1
5
255

> <PUBCHEM_BONDANNOTATIONS>
11  13  8
11  14  8
13  16  8
14  15  8
15  18  8
16  18  8

$$$$
