 
  -OEChem-10192104412D

 46 49  0     1  0  0  0  0  0999 V2000
    8.4752    2.1217    0.0000 S   0  0  0  0  0  0  0  0  0  0  0  0
    5.9405    0.3572    0.0000 O   0  0  0  0  0  0  0  0  0  0  0  0
    4.6844    2.6195    0.0000 O   0  0  0  0  0  0  0  0  0  0  0  0
    3.4026    0.8616    0.0000 O   0  0  0  0  0  0  0  0  0  0  0  0
    9.0615    1.3116    0.0000 O   0  0  0  0  0  0  0  0  0  0  0  0
    7.8888    2.9317    0.0000 O   0  0  0  0  0  0  0  0  0  0  0  0
    4.6783   -0.9007    0.0000 N   0  0  0  0  0  0  0  0  0  0  0  0
    7.6651    1.5353    0.0000 N   0  0  0  0  0  0  0  0  0  0  0  0
    4.6783   -2.5102    0.0000 N   0  0  0  0  0  0  0  0  0  0  0  0
    2.8660   -0.7054    0.0000 N   0  0  0  0  0  0  0  0  0  0  0  0
    2.0000   -2.2054    0.0000 N   0  0  0  0  0  0  0  0  0  0  0  0
   10.8249    3.2054    0.0000 N   0  0  0  0  0  0  0  0  0  0  0  0
    2.8660   -3.7054    0.0000 N   0  0  0  0  0  0  0  0  0  0  0  0
   10.2385    4.0154    0.0000 N   0  0  0  0  0  0  0  0  0  0  0  0
    5.9422    1.3572    0.0000 C   0  0  1  0  0  0  0  0  0  0  0  0
    4.9917    1.6679    0.0000 C   0  0  2  0  0  0  0  0  0  0  0  0
    4.4026    0.8599    0.0000 C   0  0  2  0  0  0  0  0  0  0  0  0
    4.9889    0.0498    0.0000 C   0  0  1  0  0  0  0  0  0  0  0  0
    6.7523    1.9436    0.0000 C   0  0  0  0  0  0  0  0  0  0  0  0
    3.7320   -1.2054    0.0000 C   0  0  0  0  0  0  0  0  0  0  0  0
    5.2619   -1.7054    0.0000 C   0  0  0  0  0  0  0  0  0  0  0  0
    3.7320   -2.2054    0.0000 C   0  0  0  0  0  0  0  0  0  0  0  0
    9.2852    2.7080    0.0000 C   0  0  0  0  0  0  0  0  0  0  0  0
    2.8660   -2.7054    0.0000 C   0  0  0  0  0  0  0  0  0  0  0  0
   10.2357    2.3974    0.0000 C   0  0  0  0  0  0  0  0  0  0  0  0
    2.0000   -1.2054    0.0000 C   0  0  0  0  0  0  0  0  0  0  0  0
    9.2869    3.7080    0.0000 C   0  0  0  0  0  0  0  0  0  0  0  0
   11.8249    3.2036    0.0000 C   0  0  0  0  0  0  0  0  0  0  0  0
    6.4942    1.0748    0.0000 H   0  0  0  0  0  0  0  0  0  0  0  0
    5.4309    2.1055    0.0000 H   0  0  0  0  0  0  0  0  0  0  0  0
    4.1201    0.3079    0.0000 H   0  0  0  0  0  0  0  0  0  0  0  0
    5.4266   -0.3893    0.0000 H   0  0  0  0  0  0  0  0  0  0  0  0
    7.0999    2.4570    0.0000 H   0  0  0  0  0  0  0  0  0  0  0  0
    6.3070    2.3750    0.0000 H   0  0  0  0  0  0  0  0  0  0  0  0
    7.7289    0.9186    0.0000 H   0  0  0  0  0  0  0  0  0  0  0  0
    5.1000    3.0795    0.0000 H   0  0  0  0  0  0  0  0  0  0  0  0
    3.0935    1.3991    0.0000 H   0  0  0  0  0  0  0  0  0  0  0  0
    5.8819   -1.7054    0.0000 H   0  0  0  0  0  0  0  0  0  0  0  0
   10.4263    1.8074    0.0000 H   0  0  0  0  0  0  0  0  0  0  0  0
    8.7860    4.0733    0.0000 H   0  0  0  0  0  0  0  0  0  0  0  0
    1.4631   -0.8954    0.0000 H   0  0  0  0  0  0  0  0  0  0  0  0
    2.3291   -4.0154    0.0000 H   0  0  0  0  0  0  0  0  0  0  0  0
    3.4030   -4.0154    0.0000 H   0  0  0  0  0  0  0  0  0  0  0  0
   11.8238    2.5836    0.0000 H   0  0  0  0  0  0  0  0  0  0  0  0
   12.4449    3.2026    0.0000 H   0  0  0  0  0  0  0  0  0  0  0  0
   11.8260    3.8236    0.0000 H   0  0  0  0  0  0  0  0  0  0  0  0
  1  5  2  0  0  0  0
  1  6  2  0  0  0  0
  1  8  1  0  0  0  0
  1 23  1  0  0  0  0
  2 15  1  0  0  0  0
  2 18  1  0  0  0  0
 16  3  1  6  0  0  0
  3 36  1  0  0  0  0
 17  4  1  6  0  0  0
  4 37  1  0  0  0  0
 18  7  1  1  0  0  0
  7 20  1  0  0  0  0
  7 21  1  0  0  0  0
  8 19  1  0  0  0  0
  8 35  1  0  0  0  0
  9 21  2  0  0  0  0
  9 22  1  0  0  0  0
 10 20  2  0  0  0  0
 10 26  1  0  0  0  0
 11 24  1  0  0  0  0
 11 26  2  0  0  0  0
 12 14  1  0  0  0  0
 12 25  1  0  0  0  0
 12 28  1  0  0  0  0
 13 24  1  0  0  0  0
 13 42  1  0  0  0  0
 13 43  1  0  0  0  0
 14 27  2  0  0  0  0
 15 16  1  0  0  0  0
 15 19  1  1  0  0  0
 15 29  1  0  0  0  0
 16 17  1  0  0  0  0
 16 30  1  0  0  0  0
 17 18  1  0  0  0  0
 17 31  1  0  0  0  0
 18 32  1  0  0  0  0
 19 33  1  0  0  0  0
 19 34  1  0  0  0  0
 20 22  1  0  0  0  0
 21 38  1  0  0  0  0
 22 24  2  0  0  0  0
 23 25  2  0  0  0  0
 23 27  1  0  0  0  0
 25 39  1  0  0  0  0
 26 41  1  0  0  0  0
 27 40  1  0  0  0  0
 28 44  1  0  0  0  0
 28 45  1  0  0  0  0
 28 46  1  0  0  0  0
M  END
> <PUBCHEM_COMPOUND_CID>
44601585

> <PUBCHEM_COMPOUND_CANONICALIZED>
1

> <PUBCHEM_CACTVS_COMPLEXITY>
665

> <PUBCHEM_CACTVS_HBOND_ACCEPTOR>
11

> <PUBCHEM_CACTVS_HBOND_DONOR>
4

> <PUBCHEM_CACTVS_ROTATABLE_BOND>
5

> <PUBCHEM_CACTVS_SUBSKEYS>
AAADceBz+ABAAAAAAAAAAAAAAAAAAWLEgAAsAAAAAAAAAFgB/gAAHgQYSAAACBzh1wYv8b9MFgKiARZnZHDQhD0RkKARUKwoVBCDWIJAyUAfxAgPGALTACCwEAAAAAAAAAAAAAAAAAAAAAAAAAAAAAAAAA==

> <PUBCHEM_IUPAC_OPENEYE_NAME>
N-[[(2R,3S,4R,5R)-5-(6-aminopurin-9-yl)-3,4-dihydroxy-tetrahydrofuran-2-yl]methyl]-1-methyl-pyrazole-4-sulfonamide

> <PUBCHEM_IUPAC_CAS_NAME>
N-[[(2R,3S,4R,5R)-5-(6-aminopurin-9-yl)-3,4-dihydroxy-2-oxolanyl]methyl]-1-methyl-4-pyrazolesulfonamide

> <PUBCHEM_IUPAC_NAME_MARKUP>
<I>N</I>-[[(2<I>R</I>,3<I>S</I>,4<I>R</I>,5<I>R</I>)-5-(6-aminopurin-9-yl)-3,4-dihydroxyoxolan-2-yl]methyl]-1-methylpyrazole-4-sulfonamide

> <PUBCHEM_IUPAC_NAME>
N-[[(2R,3S,4R,5R)-5-(6-aminopurin-9-yl)-3,4-dihydroxyoxolan-2-yl]methyl]-1-methylpyrazole-4-sulfonamide

> <PUBCHEM_IUPAC_SYSTEMATIC_NAME>
N-[[(2R,3S,4R,5R)-5-(6-aminopurin-9-yl)-3,4-bis(oxidanyl)oxolan-2-yl]methyl]-1-methyl-pyrazole-4-sulfonamide

> <PUBCHEM_IUPAC_TRADITIONAL_NAME>
N-[[(2R,3S,4R,5R)-5-adenin-9-yl-3,4-dihydroxy-tetrahydrofuran-2-yl]methyl]-1-methyl-pyrazole-4-sulfonamide

> <PUBCHEM_IUPAC_INCHI>
InChI=1S/C14H18N8O5S/c1-21-4-7(2-19-21)28(25,26)20-3-8-10(23)11(24)14(27-8)22-6-18-9-12(15)16-5-17-13(9)22/h2,4-6,8,10-11,14,20,23-24H,3H2,1H3,(H2,15,16,17)/t8-,10-,11-,14-/m1/s1

> <PUBCHEM_IUPAC_INCHIKEY>
LSYMBNJABDIFPD-IDTAVKCVSA-N

> <PUBCHEM_XLOGP3>
-1.4

> <PUBCHEM_EXACT_MASS>
410.11208688

> <PUBCHEM_MOLECULAR_FORMULA>
C14H18N8O5S

> <PUBCHEM_MOLECULAR_WEIGHT>
410.41

> <PUBCHEM_OPENEYE_CAN_SMILES>
CN1C=C(C=N1)S(=O)(=O)NCC2C(C(C(O2)N3C=NC4=C(N=CN=C43)N)O)O

> <PUBCHEM_OPENEYE_ISO_SMILES>
CN1C=C(C=N1)S(=O)(=O)NC[C@@H]2[C@H]([C@H]([C@@H](O2)N3C=NC4=C(N=CN=C43)N)O)O

> <PUBCHEM_CACTVS_TPSA>
192

> <PUBCHEM_MONOISOTOPIC_WEIGHT>
410.11208688

> <PUBCHEM_TOTAL_CHARGE>
0

> <PUBCHEM_HEAVY_ATOM_COUNT>
28

> <PUBCHEM_ATOM_DEF_STEREO_COUNT>
4

> <PUBCHEM_ATOM_UDEF_STEREO_COUNT>
0

> <PUBCHEM_BOND_DEF_STEREO_COUNT>
0

> <PUBCHEM_BOND_UDEF_STEREO_COUNT>
0

> <PUBCHEM_ISOTOPIC_ATOM_COUNT>
0

> <PUBCHEM_COMPONENT_COUNT>
1

> <PUBCHEM_CACTVS_TAUTO_COUNT>
-1

> <PUBCHEM_COORDINATE_TYPE>
1
5
255

> <PUBCHEM_BONDANNOTATIONS>
10  20  8
10  26  8
11  24  8
11  26  8
12  14  8
12  25  8
14  27  8
15  19  5
20  22  8
22  24  8
23  25  8
23  27  8
16  3  6
17  4  6
18  7  5
7  20  8
7  21  8
9  21  8
9  22  8

$$$$
