 
  -OEChem-10192104162D

 25 25  0     0  0  0  0  0  0999 V2000
    6.0010    2.6550    0.0000 O   0  0  0  0  0  0  0  0  0  0  0  0
    2.5369   -0.3450    0.0000 O   0  0  0  0  0  0  0  0  0  0  0  0
    4.2690   -3.3450    0.0000 O   0  0  0  0  0  0  0  0  0  0  0  0
    4.2690   -0.3450    0.0000 C   0  0  0  0  0  0  0  0  0  0  0  0
    3.4030   -0.8450    0.0000 C   0  0  0  0  0  0  0  0  0  0  0  0
    5.1350   -0.8450    0.0000 C   0  0  0  0  0  0  0  0  0  0  0  0
    4.2690    0.6550    0.0000 C   0  0  0  0  0  0  0  0  0  0  0  0
    3.4030   -1.8450    0.0000 C   0  0  0  0  0  0  0  0  0  0  0  0
    5.1350   -1.8450    0.0000 C   0  0  0  0  0  0  0  0  0  0  0  0
    4.2690   -2.3450    0.0000 C   0  0  0  0  0  0  0  0  0  0  0  0
    5.1350    1.1550    0.0000 C   0  0  0  0  0  0  0  0  0  0  0  0
    5.1350    2.1550    0.0000 C   0  0  0  0  0  0  0  0  0  0  0  0
    6.0010    3.6550    0.0000 C   0  0  0  0  0  0  0  0  0  0  0  0
    3.7320    0.9650    0.0000 H   0  0  0  0  0  0  0  0  0  0  0  0
    5.6720   -0.5350    0.0000 H   0  0  0  0  0  0  0  0  0  0  0  0
    2.8660   -2.1550    0.0000 H   0  0  0  0  0  0  0  0  0  0  0  0
    5.6720   -2.1550    0.0000 H   0  0  0  0  0  0  0  0  0  0  0  0
    5.6720    0.8450    0.0000 H   0  0  0  0  0  0  0  0  0  0  0  0
    4.9230    2.7376    0.0000 H   0  0  0  0  0  0  0  0  0  0  0  0
    4.5244    2.0473    0.0000 H   0  0  0  0  0  0  0  0  0  0  0  0
    2.0000   -0.6550    0.0000 H   0  0  0  0  0  0  0  0  0  0  0  0
    6.6210    3.6550    0.0000 H   0  0  0  0  0  0  0  0  0  0  0  0
    6.0010    4.2750    0.0000 H   0  0  0  0  0  0  0  0  0  0  0  0
    5.3810    3.6550    0.0000 H   0  0  0  0  0  0  0  0  0  0  0  0
    4.8059   -3.6550    0.0000 H   0  0  0  0  0  0  0  0  0  0  0  0
  1 12  1  0  0  0  0
  1 13  1  0  0  0  0
  2  5  1  0  0  0  0
  2 21  1  0  0  0  0
  3 10  1  0  0  0  0
  3 25  1  0  0  0  0
  4  5  2  0  0  0  0
  4  6  1  0  0  0  0
  4  7  1  0  0  0  0
  5  8  1  0  0  0  0
  6  9  2  0  0  0  0
  6 15  1  0  0  0  0
  7 11  2  3  0  0  0
  7 14  1  0  0  0  0
  8 10  2  0  0  0  0
  8 16  1  0  0  0  0
  9 10  1  0  0  0  0
  9 17  1  0  0  0  0
 11 12  1  0  0  0  0
 11 18  1  0  0  0  0
 12 19  1  0  0  0  0
 12 20  1  0  0  0  0
 13 22  1  0  0  0  0
 13 23  1  0  0  0  0
 13 24  1  0  0  0  0
M  END
> <PUBCHEM_COMPOUND_CID>
90888490

> <PUBCHEM_COMPOUND_CANONICALIZED>
1

> <PUBCHEM_CACTVS_COMPLEXITY>
168

> <PUBCHEM_CACTVS_HBOND_ACCEPTOR>
3

> <PUBCHEM_CACTVS_HBOND_DONOR>
2

> <PUBCHEM_CACTVS_ROTATABLE_BOND>
3

> <PUBCHEM_CACTVS_SUBSKEYS>
AAADccBwMAAAAAAAAAAAAAAAAAAAAAAAAAAwAAAAAAAAAAABAAAAGgAACAAADASgmAIyBoAABgCAAiBCAAACAAAgIAAIiAAGCIgIJyKCMRKAcAAlwBUIuAeA4CQOIAAACAAIAABAAAAQABAAAAAAAAAAAA==

> <PUBCHEM_IUPAC_OPENEYE_NAME>
4-(3-methoxyprop-1-enyl)benzene-1,3-diol

> <PUBCHEM_IUPAC_CAS_NAME>
4-(3-methoxyprop-1-enyl)benzene-1,3-diol

> <PUBCHEM_IUPAC_NAME_MARKUP>
4-(3-methoxyprop-1-enyl)benzene-1,3-diol

> <PUBCHEM_IUPAC_NAME>
4-(3-methoxyprop-1-enyl)benzene-1,3-diol

> <PUBCHEM_IUPAC_SYSTEMATIC_NAME>
4-(3-methoxyprop-1-enyl)benzene-1,3-diol

> <PUBCHEM_IUPAC_TRADITIONAL_NAME>
4-(3-methoxyprop-1-enyl)resorcinol

> <PUBCHEM_IUPAC_INCHI>
InChI=1S/C10H12O3/c1-13-6-2-3-8-4-5-9(11)7-10(8)12/h2-5,7,11-12H,6H2,1H3

> <PUBCHEM_IUPAC_INCHIKEY>
PDWNAFVQJDXPAU-UHFFFAOYSA-N

> <PUBCHEM_XLOGP3_AA>
1.5

> <PUBCHEM_EXACT_MASS>
180.078644241

> <PUBCHEM_MOLECULAR_FORMULA>
C10H12O3

> <PUBCHEM_MOLECULAR_WEIGHT>
180.20

> <PUBCHEM_OPENEYE_CAN_SMILES>
COCC=CC1=C(C=C(C=C1)O)O

> <PUBCHEM_OPENEYE_ISO_SMILES>
COCC=CC1=C(C=C(C=C1)O)O

> <PUBCHEM_CACTVS_TPSA>
49.7

> <PUBCHEM_MONOISOTOPIC_WEIGHT>
180.078644241

> <PUBCHEM_TOTAL_CHARGE>
0

> <PUBCHEM_HEAVY_ATOM_COUNT>
13

> <PUBCHEM_ATOM_DEF_STEREO_COUNT>
0

> <PUBCHEM_ATOM_UDEF_STEREO_COUNT>
0

> <PUBCHEM_BOND_DEF_STEREO_COUNT>
0

> <PUBCHEM_BOND_UDEF_STEREO_COUNT>
1

> <PUBCHEM_ISOTOPIC_ATOM_COUNT>
0

> <PUBCHEM_COMPONENT_COUNT>
1

> <PUBCHEM_CACTVS_TAUTO_COUNT>
-1

> <PUBCHEM_COORDINATE_TYPE>
1
5
255

> <PUBCHEM_BONDANNOTATIONS>
4  5  8
4  6  8
5  8  8
6  9  8
7  11  1
8  10  8
9  10  8

$$$$
