 
  -OEChem-10192103342D

 17 16  0     1  0  0  0  0  0999 V2000
    6.0010   -0.3450    0.0000 O   0  0  0  0  0  0  0  0  0  0  0  0
    4.2690   -1.3450    0.0000 O   0  0  0  0  0  0  0  0  0  0  0  0
    2.5369   -0.3450    0.0000 O   0  0  0  0  0  0  0  0  0  0  0  0
    3.4030    1.1550    0.0000 O   0  0  0  0  0  0  0  0  0  0  0  0
    5.1350    0.1550    0.0000 C   0  0  3  0  0  0  0  0  0  0  0  0
    4.2690   -0.3450    0.0000 C   0  0  3  0  0  0  0  0  0  0  0  0
    5.1350    1.1550    0.0000 C   0  0  0  0  0  0  0  0  0  0  0  0
    3.4030    0.1550    0.0000 C   0  0  0  0  0  0  0  0  0  0  0  0
    6.0010    1.6550    0.0000 C   0  0  0  0  0  0  0  0  0  0  0  0
    5.6720    0.4650    0.0000 H   0  0  0  0  0  0  0  0  0  0  0  0
    4.8059   -0.6550    0.0000 H   0  0  0  0  0  0  0  0  0  0  0  0
    4.5981    1.4650    0.0000 H   0  0  0  0  0  0  0  0  0  0  0  0
    6.5380   -0.0350    0.0000 H   0  0  0  0  0  0  0  0  0  0  0  0
    3.7320   -1.6550    0.0000 H   0  0  0  0  0  0  0  0  0  0  0  0
    6.5380    1.3450    0.0000 H   0  0  0  0  0  0  0  0  0  0  0  0
    6.0010    2.2750    0.0000 H   0  0  0  0  0  0  0  0  0  0  0  0
    2.0000   -0.0350    0.0000 H   0  0  0  0  0  0  0  0  0  0  0  0
  1  5  1  0  0  0  0
  1 13  1  0  0  0  0
  2  6  1  0  0  0  0
  2 14  1  0  0  0  0
  3  8  1  0  0  0  0
  3 17  1  0  0  0  0
  4  8  2  0  0  0  0
  5  6  1  0  0  0  0
  5  7  1  0  0  0  0
  5 10  1  0  0  0  0
  6  8  1  0  0  0  0
  6 11  1  0  0  0  0
  7  9  2  0  0  0  0
  7 12  1  0  0  0  0
  9 15  1  0  0  0  0
  9 16  1  0  0  0  0
M  END
> <PUBCHEM_COMPOUND_CID>
18369036

> <PUBCHEM_COMPOUND_CANONICALIZED>
1

> <PUBCHEM_CACTVS_COMPLEXITY>
120

> <PUBCHEM_CACTVS_HBOND_ACCEPTOR>
4

> <PUBCHEM_CACTVS_HBOND_DONOR>
3

> <PUBCHEM_CACTVS_ROTATABLE_BOND>
3

> <PUBCHEM_CACTVS_SUBSKEYS>
AAADccBgOAAAAAAAAAAAAAAAAAAAAAAAAAAAAAAAAAAAAAAAAAAAGgAACAAACBSggAIACAAAAgCIACDSCAIAAAAgAAAIAAFAAAgBFBQAAQAAQAAF4AABEAAAAAAAAAAAAAAAAAAAAAAAAAAAAAAAAAAAAA==

> <PUBCHEM_IUPAC_OPENEYE_NAME>
2,3-dihydroxypent-4-enoic acid

> <PUBCHEM_IUPAC_CAS_NAME>
2,3-dihydroxy-4-pentenoic acid

> <PUBCHEM_IUPAC_NAME_MARKUP>
2,3-dihydroxypent-4-enoic acid

> <PUBCHEM_IUPAC_NAME>
2,3-dihydroxypent-4-enoic acid

> <PUBCHEM_IUPAC_SYSTEMATIC_NAME>
2,3-bis(oxidanyl)pent-4-enoic acid

> <PUBCHEM_IUPAC_TRADITIONAL_NAME>
2,3-dihydroxypent-4-enoic acid

> <PUBCHEM_IUPAC_INCHI>
InChI=1S/C5H8O4/c1-2-3(6)4(7)5(8)9/h2-4,6-7H,1H2,(H,8,9)

> <PUBCHEM_IUPAC_INCHIKEY>
CTDSCESRMWRTFJ-UHFFFAOYSA-N

> <PUBCHEM_XLOGP3_AA>
-0.8

> <PUBCHEM_EXACT_MASS>
132.04225873

> <PUBCHEM_MOLECULAR_FORMULA>
C5H8O4

> <PUBCHEM_MOLECULAR_WEIGHT>
132.11

> <PUBCHEM_OPENEYE_CAN_SMILES>
C=CC(C(C(=O)O)O)O

> <PUBCHEM_OPENEYE_ISO_SMILES>
C=CC(C(C(=O)O)O)O

> <PUBCHEM_CACTVS_TPSA>
77.8

> <PUBCHEM_MONOISOTOPIC_WEIGHT>
132.04225873

> <PUBCHEM_TOTAL_CHARGE>
0

> <PUBCHEM_HEAVY_ATOM_COUNT>
9

> <PUBCHEM_ATOM_DEF_STEREO_COUNT>
0

> <PUBCHEM_ATOM_UDEF_STEREO_COUNT>
2

> <PUBCHEM_BOND_DEF_STEREO_COUNT>
0

> <PUBCHEM_BOND_UDEF_STEREO_COUNT>
0

> <PUBCHEM_ISOTOPIC_ATOM_COUNT>
0

> <PUBCHEM_COMPONENT_COUNT>
1

> <PUBCHEM_CACTVS_TAUTO_COUNT>
-1

> <PUBCHEM_COORDINATE_TYPE>
1
5
255

> <PUBCHEM_BONDANNOTATIONS>
5  1  3
6  2  3

$$$$
