 
  -OEChem-10192104402D

 48 47  0     1  0  0  0  0  0999 V2000
    6.0010    1.4050    0.0000 O   0  0  0  0  0  0  0  0  0  0  0  0
    2.5369    0.4050    0.0000 O   0  0  0  0  0  0  0  0  0  0  0  0
    3.4030   -1.0950    0.0000 O   0  0  0  0  0  0  0  0  0  0  0  0
    5.1350   -1.0950    0.0000 N   0  0  0  0  0  0  0  0  0  0  0  0
   10.3312   -0.0950    0.0000 C   0  0  0  0  0  0  0  0  0  0  0  0
    9.4651    0.4050    0.0000 C   0  0  0  0  0  0  0  0  0  0  0  0
   11.1972    0.4050    0.0000 C   0  0  0  0  0  0  0  0  0  0  0  0
    8.5991   -0.0950    0.0000 C   0  0  0  0  0  0  0  0  0  0  0  0
   12.0632   -0.0950    0.0000 C   0  0  0  0  0  0  0  0  0  0  0  0
   12.9292    0.4050    0.0000 C   0  0  0  0  0  0  0  0  0  0  0  0
    7.7331    0.4050    0.0000 C   0  0  0  0  0  0  0  0  0  0  0  0
   13.7953   -0.0950    0.0000 C   0  0  0  0  0  0  0  0  0  0  0  0
    6.8671   -0.0950    0.0000 C   0  0  0  0  0  0  0  0  0  0  0  0
   14.6613    0.4050    0.0000 C   0  0  0  0  0  0  0  0  0  0  0  0
    6.0010    0.4050    0.0000 C   0  0  0  0  0  0  0  0  0  0  0  0
    5.1350   -0.0950    0.0000 C   0  0  3  0  0  0  0  0  0  0  0  0
    4.2690    0.4050    0.0000 C   0  0  0  0  0  0  0  0  0  0  0  0
   15.5273   -0.0950    0.0000 C   0  0  0  0  0  0  0  0  0  0  0  0
    3.4030   -0.0950    0.0000 C   0  0  0  0  0  0  0  0  0  0  0  0
    9.9326   -0.5699    0.0000 H   0  0  0  0  0  0  0  0  0  0  0  0
   10.7297   -0.5699    0.0000 H   0  0  0  0  0  0  0  0  0  0  0  0
    9.8637    0.8799    0.0000 H   0  0  0  0  0  0  0  0  0  0  0  0
    9.0666    0.8799    0.0000 H   0  0  0  0  0  0  0  0  0  0  0  0
   11.5957    0.8799    0.0000 H   0  0  0  0  0  0  0  0  0  0  0  0
   10.7987    0.8799    0.0000 H   0  0  0  0  0  0  0  0  0  0  0  0
    8.2006   -0.5699    0.0000 H   0  0  0  0  0  0  0  0  0  0  0  0
    8.9976   -0.5699    0.0000 H   0  0  0  0  0  0  0  0  0  0  0  0
   11.6647   -0.5699    0.0000 H   0  0  0  0  0  0  0  0  0  0  0  0
   12.4617   -0.5699    0.0000 H   0  0  0  0  0  0  0  0  0  0  0  0
   13.3278    0.8799    0.0000 H   0  0  0  0  0  0  0  0  0  0  0  0
   12.5307    0.8799    0.0000 H   0  0  0  0  0  0  0  0  0  0  0  0
    8.1316    0.8799    0.0000 H   0  0  0  0  0  0  0  0  0  0  0  0
    7.3346    0.8799    0.0000 H   0  0  0  0  0  0  0  0  0  0  0  0
   13.3967   -0.5699    0.0000 H   0  0  0  0  0  0  0  0  0  0  0  0
   14.1938   -0.5699    0.0000 H   0  0  0  0  0  0  0  0  0  0  0  0
    6.4685   -0.5699    0.0000 H   0  0  0  0  0  0  0  0  0  0  0  0
    7.2656   -0.5699    0.0000 H   0  0  0  0  0  0  0  0  0  0  0  0
   15.0598    0.8799    0.0000 H   0  0  0  0  0  0  0  0  0  0  0  0
   14.2628    0.8799    0.0000 H   0  0  0  0  0  0  0  0  0  0  0  0
    5.6720   -0.4050    0.0000 H   0  0  0  0  0  0  0  0  0  0  0  0
    4.6675    0.8799    0.0000 H   0  0  0  0  0  0  0  0  0  0  0  0
    3.8705    0.8799    0.0000 H   0  0  0  0  0  0  0  0  0  0  0  0
   15.2173   -0.6319    0.0000 H   0  0  0  0  0  0  0  0  0  0  0  0
   16.0643   -0.4050    0.0000 H   0  0  0  0  0  0  0  0  0  0  0  0
   15.8373    0.4419    0.0000 H   0  0  0  0  0  0  0  0  0  0  0  0
    4.5981   -1.4050    0.0000 H   0  0  0  0  0  0  0  0  0  0  0  0
    5.6720   -1.4050    0.0000 H   0  0  0  0  0  0  0  0  0  0  0  0
    2.0000    0.0950    0.0000 H   0  0  0  0  0  0  0  0  0  0  0  0
  1 15  2  0  0  0  0
  2 19  1  0  0  0  0
  2 48  1  0  0  0  0
  3 19  2  0  0  0  0
  4 16  1  0  0  0  0
  4 46  1  0  0  0  0
  4 47  1  0  0  0  0
  5  6  1  0  0  0  0
  5  7  1  0  0  0  0
  5 20  1  0  0  0  0
  5 21  1  0  0  0  0
  6  8  1  0  0  0  0
  6 22  1  0  0  0  0
  6 23  1  0  0  0  0
  7  9  1  0  0  0  0
  7 24  1  0  0  0  0
  7 25  1  0  0  0  0
  8 11  1  0  0  0  0
  8 26  1  0  0  0  0
  8 27  1  0  0  0  0
  9 10  1  0  0  0  0
  9 28  1  0  0  0  0
  9 29  1  0  0  0  0
 10 12  1  0  0  0  0
 10 30  1  0  0  0  0
 10 31  1  0  0  0  0
 11 13  1  0  0  0  0
 11 32  1  0  0  0  0
 11 33  1  0  0  0  0
 12 14  1  0  0  0  0
 12 34  1  0  0  0  0
 12 35  1  0  0  0  0
 13 15  1  0  0  0  0
 13 36  1  0  0  0  0
 13 37  1  0  0  0  0
 14 18  1  0  0  0  0
 14 38  1  0  0  0  0
 14 39  1  0  0  0  0
 15 16  1  0  0  0  0
 16 17  1  0  0  0  0
 16 40  1  0  0  0  0
 17 19  1  0  0  0  0
 17 41  1  0  0  0  0
 17 42  1  0  0  0  0
 18 43  1  0  0  0  0
 18 44  1  0  0  0  0
 18 45  1  0  0  0  0
M  END
> <PUBCHEM_COMPOUND_CID>
54514700

> <PUBCHEM_COMPOUND_CANONICALIZED>
1

> <PUBCHEM_CACTVS_COMPLEXITY>
254

> <PUBCHEM_CACTVS_HBOND_ACCEPTOR>
4

> <PUBCHEM_CACTVS_HBOND_DONOR>
2

> <PUBCHEM_CACTVS_ROTATABLE_BOND>
13

> <PUBCHEM_CACTVS_SUBSKEYS>
AAADceByMAAAAAAAAAAAAAAAAAAAAAAAAAAAAAAAAAAAAAAAAAAAHgAQCAAACCzBgAQCCABAAgAIAICQCAAAAAAAAAAAAIGAAAAAABoAgAAAQAAGEAAAAAGbyKCAAAAAAAAAAAAAAAAAAAAAAAAAAAAAAA==

> <PUBCHEM_IUPAC_OPENEYE_NAME>
3-amino-4-oxo-pentadecanoic acid

> <PUBCHEM_IUPAC_CAS_NAME>
3-amino-4-oxopentadecanoic acid

> <PUBCHEM_IUPAC_NAME_MARKUP>
3-amino-4-oxopentadecanoic acid

> <PUBCHEM_IUPAC_NAME>
3-amino-4-oxopentadecanoic acid

> <PUBCHEM_IUPAC_SYSTEMATIC_NAME>
3-azanyl-4-oxidanylidene-pentadecanoic acid

> <PUBCHEM_IUPAC_TRADITIONAL_NAME>
3-amino-4-keto-pentadecanoic acid

> <PUBCHEM_IUPAC_INCHI>
InChI=1S/C15H29NO3/c1-2-3-4-5-6-7-8-9-10-11-14(17)13(16)12-15(18)19/h13H,2-12,16H2,1H3,(H,18,19)

> <PUBCHEM_IUPAC_INCHIKEY>
YLPFCMHZWNBCTK-UHFFFAOYSA-N

> <PUBCHEM_XLOGP3_AA>
1.5

> <PUBCHEM_EXACT_MASS>
271.21474379

> <PUBCHEM_MOLECULAR_FORMULA>
C15H29NO3

> <PUBCHEM_MOLECULAR_WEIGHT>
271.40

> <PUBCHEM_OPENEYE_CAN_SMILES>
CCCCCCCCCCCC(=O)C(CC(=O)O)N

> <PUBCHEM_OPENEYE_ISO_SMILES>
CCCCCCCCCCCC(=O)C(CC(=O)O)N

> <PUBCHEM_CACTVS_TPSA>
80.4

> <PUBCHEM_MONOISOTOPIC_WEIGHT>
271.21474379

> <PUBCHEM_TOTAL_CHARGE>
0

> <PUBCHEM_HEAVY_ATOM_COUNT>
19

> <PUBCHEM_ATOM_DEF_STEREO_COUNT>
0

> <PUBCHEM_ATOM_UDEF_STEREO_COUNT>
1

> <PUBCHEM_BOND_DEF_STEREO_COUNT>
0

> <PUBCHEM_BOND_UDEF_STEREO_COUNT>
0

> <PUBCHEM_ISOTOPIC_ATOM_COUNT>
0

> <PUBCHEM_COMPONENT_COUNT>
1

> <PUBCHEM_CACTVS_TAUTO_COUNT>
-1

> <PUBCHEM_COORDINATE_TYPE>
1
5
255

> <PUBCHEM_BONDANNOTATIONS>
16  4  3

$$$$
