 
  -OEChem-10192104332D

 58 58  0     1  0  0  0  0  0999 V2000
    7.7331    2.8450    0.0000 O   0  0  0  0  0  0  0  0  0  0  0  0
   11.1972   -0.1550    0.0000 O   0  0  0  0  0  0  0  0  0  0  0  0
    2.5369   -1.1550    0.0000 O   0  0  0  0  0  0  0  0  0  0  0  0
    4.2690    1.8450    0.0000 O   0  0  0  0  0  0  0  0  0  0  0  0
    8.5991    1.3450    0.0000 O   0  0  0  0  0  0  0  0  0  0  0  0
   10.3312    1.3450    0.0000 O   0  0  0  0  0  0  0  0  0  0  0  0
    3.4030   -2.6550    0.0000 O   0  0  0  0  0  0  0  0  0  0  0  0
    6.0010    1.8450    0.0000 O   0  0  0  0  0  0  0  0  0  0  0  0
    7.7331   -0.1550    0.0000 N   0  0  0  0  0  0  0  0  0  0  0  0
    6.0010   -1.1550    0.0000 N   0  0  0  0  0  0  0  0  0  0  0  0
    7.7331   -1.1550    0.0000 C   0  0  3  0  0  0  0  0  0  0  0  0
    6.8671   -1.6550    0.0000 C   0  0  3  0  0  0  0  0  0  0  0  0
    8.5991   -1.6550    0.0000 C   0  0  0  0  0  0  0  0  0  0  0  0
    6.8671   -2.6550    0.0000 C   0  0  0  0  0  0  0  0  0  0  0  0
    8.5991   -2.6550    0.0000 C   0  0  0  0  0  0  0  0  0  0  0  0
    7.7331   -3.1550    0.0000 C   0  0  0  0  0  0  0  0  0  0  0  0
    6.8671    0.3450    0.0000 C   0  0  0  0  0  0  0  0  0  0  0  0
    8.5991    0.3450    0.0000 C   0  0  0  0  0  0  0  0  0  0  0  0
    5.1350   -1.6550    0.0000 C   0  0  0  0  0  0  0  0  0  0  0  0
    6.0010   -0.1550    0.0000 C   0  0  0  0  0  0  0  0  0  0  0  0
    6.8671    1.3450    0.0000 C   0  0  0  0  0  0  0  0  0  0  0  0
    9.4651   -0.1550    0.0000 C   0  0  0  0  0  0  0  0  0  0  0  0
    4.2690   -1.1550    0.0000 C   0  0  0  0  0  0  0  0  0  0  0  0
    5.1350    0.3450    0.0000 C   0  0  0  0  0  0  0  0  0  0  0  0
    7.7331    1.8450    0.0000 C   0  0  0  0  0  0  0  0  0  0  0  0
   10.3312    0.3450    0.0000 C   0  0  0  0  0  0  0  0  0  0  0  0
    3.4030   -1.6550    0.0000 C   0  0  0  0  0  0  0  0  0  0  0  0
    5.1350    1.3450    0.0000 C   0  0  0  0  0  0  0  0  0  0  0  0
    8.2700   -0.8450    0.0000 H   0  0  0  0  0  0  0  0  0  0  0  0
    6.3301   -1.9650    0.0000 H   0  0  0  0  0  0  0  0  0  0  0  0
    9.2097   -1.7627    0.0000 H   0  0  0  0  0  0  0  0  0  0  0  0
    8.8112   -1.0724    0.0000 H   0  0  0  0  0  0  0  0  0  0  0  0
    6.2565   -2.5473    0.0000 H   0  0  0  0  0  0  0  0  0  0  0  0
    6.6550   -3.2376    0.0000 H   0  0  0  0  0  0  0  0  0  0  0  0
    8.8112   -3.2376    0.0000 H   0  0  0  0  0  0  0  0  0  0  0  0
    9.2097   -2.5473    0.0000 H   0  0  0  0  0  0  0  0  0  0  0  0
    7.3346   -3.6300    0.0000 H   0  0  0  0  0  0  0  0  0  0  0  0
    8.1316   -3.6300    0.0000 H   0  0  0  0  0  0  0  0  0  0  0  0
    6.2565    0.4527    0.0000 H   0  0  0  0  0  0  0  0  0  0  0  0
    6.6550   -0.2376    0.0000 H   0  0  0  0  0  0  0  0  0  0  0  0
    8.9976    0.8199    0.0000 H   0  0  0  0  0  0  0  0  0  0  0  0
    8.2006    0.8199    0.0000 H   0  0  0  0  0  0  0  0  0  0  0  0
    4.7365   -2.1300    0.0000 H   0  0  0  0  0  0  0  0  0  0  0  0
    5.5335   -2.1300    0.0000 H   0  0  0  0  0  0  0  0  0  0  0  0
    6.6116   -0.2627    0.0000 H   0  0  0  0  0  0  0  0  0  0  0  0
    6.2131    0.4276    0.0000 H   0  0  0  0  0  0  0  0  0  0  0  0
    6.6550    1.9276    0.0000 H   0  0  0  0  0  0  0  0  0  0  0  0
    6.2565    1.2373    0.0000 H   0  0  0  0  0  0  0  0  0  0  0  0
    9.0666   -0.6299    0.0000 H   0  0  0  0  0  0  0  0  0  0  0  0
    9.8637   -0.6299    0.0000 H   0  0  0  0  0  0  0  0  0  0  0  0
    4.6675   -0.6801    0.0000 H   0  0  0  0  0  0  0  0  0  0  0  0
    3.8705   -0.6801    0.0000 H   0  0  0  0  0  0  0  0  0  0  0  0
    4.5244    0.4527    0.0000 H   0  0  0  0  0  0  0  0  0  0  0  0
    4.9230   -0.2376    0.0000 H   0  0  0  0  0  0  0  0  0  0  0  0
    7.1962    3.1550    0.0000 H   0  0  0  0  0  0  0  0  0  0  0  0
   11.7341    0.1550    0.0000 H   0  0  0  0  0  0  0  0  0  0  0  0
    2.0000   -1.4650    0.0000 H   0  0  0  0  0  0  0  0  0  0  0  0
    4.2690    2.4650    0.0000 H   0  0  0  0  0  0  0  0  0  0  0  0
  1 25  1  0  0  0  0
  1 55  1  0  0  0  0
  2 26  1  0  0  0  0
  2 56  1  0  0  0  0
  3 27  1  0  0  0  0
  3 57  1  0  0  0  0
  4 28  1  0  0  0  0
  4 58  1  0  0  0  0
  5 25  2  0  0  0  0
  6 26  2  0  0  0  0
  7 27  2  0  0  0  0
  8 28  2  0  0  0  0
  9 11  1  0  0  0  0
  9 17  1  0  0  0  0
  9 18  1  0  0  0  0
 10 12  1  0  0  0  0
 10 19  1  0  0  0  0
 10 20  1  0  0  0  0
 11 12  1  0  0  0  0
 11 13  1  0  0  0  0
 11 29  1  0  0  0  0
 12 14  1  0  0  0  0
 12 30  1  0  0  0  0
 13 15  1  0  0  0  0
 13 31  1  0  0  0  0
 13 32  1  0  0  0  0
 14 16  1  0  0  0  0
 14 33  1  0  0  0  0
 14 34  1  0  0  0  0
 15 16  1  0  0  0  0
 15 35  1  0  0  0  0
 15 36  1  0  0  0  0
 16 37  1  0  0  0  0
 16 38  1  0  0  0  0
 17 21  1  0  0  0  0
 17 39  1  0  0  0  0
 17 40  1  0  0  0  0
 18 22  1  0  0  0  0
 18 41  1  0  0  0  0
 18 42  1  0  0  0  0
 19 23  1  0  0  0  0
 19 43  1  0  0  0  0
 19 44  1  0  0  0  0
 20 24  1  0  0  0  0
 20 45  1  0  0  0  0
 20 46  1  0  0  0  0
 21 25  1  0  0  0  0
 21 47  1  0  0  0  0
 21 48  1  0  0  0  0
 22 26  1  0  0  0  0
 22 49  1  0  0  0  0
 22 50  1  0  0  0  0
 23 27  1  0  0  0  0
 23 51  1  0  0  0  0
 23 52  1  0  0  0  0
 24 28  1  0  0  0  0
 24 53  1  0  0  0  0
 24 54  1  0  0  0  0
M  END
> <PUBCHEM_COMPOUND_CID>
19806436

> <PUBCHEM_COMPOUND_CANONICALIZED>
1

> <PUBCHEM_CACTVS_COMPLEXITY>
470

> <PUBCHEM_CACTVS_HBOND_ACCEPTOR>
10

> <PUBCHEM_CACTVS_HBOND_DONOR>
4

> <PUBCHEM_CACTVS_ROTATABLE_BOND>
14

> <PUBCHEM_CACTVS_SUBSKEYS>
AAADceB7PAAAAAAAAAAAAAAAAAAAAAAAAAAwAAAAAAAAAAAAAAAAHgAACAAACCjBgAQACAMAAgAIAACQCAAAAAAAAAAAAAEIAAAAQAoAgAAUQAACAACAAAEQAAAAAAAAAAAAAAAAAAAAAAAAQAAAAAAAAA==

> <PUBCHEM_IUPAC_OPENEYE_NAME>
3-[[2-[bis(2-carboxyethyl)amino]cyclohexyl]-(2-carboxyethyl)amino]propanoic acid

> <PUBCHEM_IUPAC_CAS_NAME>
3-[[2-[bis(2-carboxyethyl)amino]cyclohexyl]-(2-carboxyethyl)amino]propanoic acid

> <PUBCHEM_IUPAC_NAME_MARKUP>
3-[[2-[bis(2-carboxyethyl)amino]cyclohexyl]-(2-carboxyethyl)amino]propanoic acid

> <PUBCHEM_IUPAC_NAME>
3-[[2-[bis(2-carboxyethyl)amino]cyclohexyl]-(2-carboxyethyl)amino]propanoic acid

> <PUBCHEM_IUPAC_SYSTEMATIC_NAME>
3-[[2-[bis(3-hydroxy-3-oxopropyl)amino]cyclohexyl]-(3-hydroxy-3-oxopropyl)amino]propanoic acid

> <PUBCHEM_IUPAC_TRADITIONAL_NAME>
3-[[2-[bis(2-carboxyethyl)amino]cyclohexyl]-(2-carboxyethyl)amino]propionic acid

> <PUBCHEM_IUPAC_INCHI>
InChI=1S/C18H30N2O8/c21-15(22)5-9-19(10-6-16(23)24)13-3-1-2-4-14(13)20(11-7-17(25)26)12-8-18(27)28/h13-14H,1-12H2,(H,21,22)(H,23,24)(H,25,26)(H,27,28)

> <PUBCHEM_IUPAC_INCHIKEY>
IGBLJXZKUJYCKW-UHFFFAOYSA-N

> <PUBCHEM_XLOGP3_AA>
-4.9

> <PUBCHEM_EXACT_MASS>
402.20021592

> <PUBCHEM_MOLECULAR_FORMULA>
C18H30N2O8

> <PUBCHEM_MOLECULAR_WEIGHT>
402.4

> <PUBCHEM_OPENEYE_CAN_SMILES>
C1CCC(C(C1)N(CCC(=O)O)CCC(=O)O)N(CCC(=O)O)CCC(=O)O

> <PUBCHEM_OPENEYE_ISO_SMILES>
C1CCC(C(C1)N(CCC(=O)O)CCC(=O)O)N(CCC(=O)O)CCC(=O)O

> <PUBCHEM_CACTVS_TPSA>
156

> <PUBCHEM_MONOISOTOPIC_WEIGHT>
402.20021592

> <PUBCHEM_TOTAL_CHARGE>
0

> <PUBCHEM_HEAVY_ATOM_COUNT>
28

> <PUBCHEM_ATOM_DEF_STEREO_COUNT>
0

> <PUBCHEM_ATOM_UDEF_STEREO_COUNT>
2

> <PUBCHEM_BOND_DEF_STEREO_COUNT>
0

> <PUBCHEM_BOND_UDEF_STEREO_COUNT>
0

> <PUBCHEM_ISOTOPIC_ATOM_COUNT>
0

> <PUBCHEM_COMPONENT_COUNT>
1

> <PUBCHEM_CACTVS_TAUTO_COUNT>
-1

> <PUBCHEM_COORDINATE_TYPE>
1
5
255

> <PUBCHEM_BONDANNOTATIONS>
12  10  3
11  9  3

$$$$
