 
  -OEChem-10192104222D

 76 77  0     1  0  0  0  0  0999 V2000
    8.9282   -1.3450    0.0000 O   0  0  0  0  0  0  0  0  0  0  0  0
   14.1244   -1.3450    0.0000 O   0  0  0  0  0  0  0  0  0  0  0  0
   11.5263    0.1550    0.0000 O   0  0  0  0  0  0  0  0  0  0  0  0
   14.1244    1.6550    0.0000 O   0  0  0  0  0  0  0  0  0  0  0  0
    6.3301    0.1550    0.0000 O   0  0  0  0  0  0  0  0  0  0  0  0
   17.5885   -1.3450    0.0000 O   0  0  0  0  0  0  0  0  0  0  0  0
   16.7224    0.1550    0.0000 O   0  0  0  0  0  0  0  0  0  0  0  0
    9.7942   -0.8450    0.0000 C   0  0  1  0  0  0  0  0  0  0  0  0
    9.7942    0.1550    0.0000 C   0  0  2  0  0  0  0  0  0  0  0  0
   10.6603   -1.3450    0.0000 C   0  0  0  0  0  0  0  0  0  0  0  0
    8.9282    0.6550    0.0000 C   0  0  0  0  0  0  0  0  0  0  0  0
    8.0622   -0.8450    0.0000 C   0  0  1  0  0  0  0  0  0  0  0  0
   11.5263   -0.8450    0.0000 C   0  0  2  0  0  0  0  0  0  0  0  0
    8.0622    0.1550    0.0000 C   0  0  0  0  0  0  0  0  0  0  0  0
   13.2583   -0.8450    0.0000 C   0  0  2  0  0  0  0  0  0  0  0  0
   12.3923   -1.3450    0.0000 C   0  0  0  0  0  0  0  0  0  0  0  0
   13.2583    0.1550    0.0000 C   0  0  0  0  0  0  0  0  0  0  0  0
    7.1962   -1.3450    0.0000 C   0  0  0  0  0  0  0  0  0  0  0  0
   10.6603    0.6550    0.0000 C   0  0  0  0  0  0  0  0  0  0  0  0
   14.1244    0.6550    0.0000 C   0  0  2  0  0  0  0  0  0  0  0  0
   14.9904   -0.8450    0.0000 C   0  0  2  0  0  0  0  0  0  0  0  0
   14.9904    0.1550    0.0000 C   0  0  0  0  0  0  0  0  0  0  0  0
    6.3301   -0.8450    0.0000 C   0  0  2  0  0  0  0  0  0  0  0  0
   15.8564   -1.3450    0.0000 C   0  0  0  0  0  0  0  0  0  0  0  0
   12.3923    0.6550    0.0000 C   0  0  0  0  0  0  0  0  0  0  0  0
    5.4641   -1.3450    0.0000 C   0  0  0  0  0  0  0  0  0  0  0  0
   16.7224   -0.8450    0.0000 C   0  0  0  0  0  0  0  0  0  0  0  0
    4.5981   -0.8450    0.0000 C   0  0  0  0  0  0  0  0  0  0  0  0
    3.7320   -1.3450    0.0000 C   0  0  0  0  0  0  0  0  0  0  0  0
    2.8660   -0.8450    0.0000 C   0  0  0  0  0  0  0  0  0  0  0  0
    2.0000   -1.3450    0.0000 C   0  0  0  0  0  0  0  0  0  0  0  0
    2.8660    0.1550    0.0000 C   0  0  0  0  0  0  0  0  0  0  0  0
    9.7942   -1.4650    0.0000 H   0  0  0  0  0  0  0  0  0  0  0  0
    9.7942    0.7750    0.0000 H   0  0  0  0  0  0  0  0  0  0  0  0
   10.2617   -1.8200    0.0000 H   0  0  0  0  0  0  0  0  0  0  0  0
   11.0588   -1.8200    0.0000 H   0  0  0  0  0  0  0  0  0  0  0  0
    9.3267    1.1300    0.0000 H   0  0  0  0  0  0  0  0  0  0  0  0
    8.5297    1.1300    0.0000 H   0  0  0  0  0  0  0  0  0  0  0  0
    8.0622   -1.4650    0.0000 H   0  0  0  0  0  0  0  0  0  0  0  0
   12.0632   -0.5350    0.0000 H   0  0  0  0  0  0  0  0  0  0  0  0
    7.8501    0.7376    0.0000 H   0  0  0  0  0  0  0  0  0  0  0  0
    7.4516    0.0473    0.0000 H   0  0  0  0  0  0  0  0  0  0  0  0
   13.2583   -1.4650    0.0000 H   0  0  0  0  0  0  0  0  0  0  0  0
   11.9938   -1.8200    0.0000 H   0  0  0  0  0  0  0  0  0  0  0  0
   12.7908   -1.8200    0.0000 H   0  0  0  0  0  0  0  0  0  0  0  0
   13.0463    0.7376    0.0000 H   0  0  0  0  0  0  0  0  0  0  0  0
   12.6477    0.0473    0.0000 H   0  0  0  0  0  0  0  0  0  0  0  0
    6.7976   -1.8200    0.0000 H   0  0  0  0  0  0  0  0  0  0  0  0
    7.5947   -1.8200    0.0000 H   0  0  0  0  0  0  0  0  0  0  0  0
   10.9703    0.1181    0.0000 H   0  0  0  0  0  0  0  0  0  0  0  0
   11.1972    0.9650    0.0000 H   0  0  0  0  0  0  0  0  0  0  0  0
   10.3503    1.1919    0.0000 H   0  0  0  0  0  0  0  0  0  0  0  0
   13.5874    0.9650    0.0000 H   0  0  0  0  0  0  0  0  0  0  0  0
   14.9904   -1.4650    0.0000 H   0  0  0  0  0  0  0  0  0  0  0  0
   15.6010    0.0473    0.0000 H   0  0  0  0  0  0  0  0  0  0  0  0
   15.2024    0.7376    0.0000 H   0  0  0  0  0  0  0  0  0  0  0  0
    6.8671   -0.5350    0.0000 H   0  0  0  0  0  0  0  0  0  0  0  0
   15.4579   -1.8200    0.0000 H   0  0  0  0  0  0  0  0  0  0  0  0
   16.2549   -1.8200    0.0000 H   0  0  0  0  0  0  0  0  0  0  0  0
   14.6613    1.9650    0.0000 H   0  0  0  0  0  0  0  0  0  0  0  0
   12.7023    0.1181    0.0000 H   0  0  0  0  0  0  0  0  0  0  0  0
   12.9292    0.9650    0.0000 H   0  0  0  0  0  0  0  0  0  0  0  0
   12.0823    1.1919    0.0000 H   0  0  0  0  0  0  0  0  0  0  0  0
    5.4641   -1.9650    0.0000 H   0  0  0  0  0  0  0  0  0  0  0  0
    5.7932    0.4650    0.0000 H   0  0  0  0  0  0  0  0  0  0  0  0
    4.5981   -0.2250    0.0000 H   0  0  0  0  0  0  0  0  0  0  0  0
    3.3335   -1.8200    0.0000 H   0  0  0  0  0  0  0  0  0  0  0  0
    4.1306   -1.8200    0.0000 H   0  0  0  0  0  0  0  0  0  0  0  0
    2.8660   -1.4650    0.0000 H   0  0  0  0  0  0  0  0  0  0  0  0
   18.1254   -1.0350    0.0000 H   0  0  0  0  0  0  0  0  0  0  0  0
    1.6900   -0.8081    0.0000 H   0  0  0  0  0  0  0  0  0  0  0  0
    1.4631   -1.6550    0.0000 H   0  0  0  0  0  0  0  0  0  0  0  0
    2.3100   -1.8819    0.0000 H   0  0  0  0  0  0  0  0  0  0  0  0
    3.4860    0.1550    0.0000 H   0  0  0  0  0  0  0  0  0  0  0  0
    2.8660    0.7750    0.0000 H   0  0  0  0  0  0  0  0  0  0  0  0
    2.2460    0.1550    0.0000 H   0  0  0  0  0  0  0  0  0  0  0  0
  1  8  1  0  0  0  0
  1 12  1  0  0  0  0
  2 15  1  0  0  0  0
  2 21  1  0  0  0  0
 13  3  1  1  0  0  0
  3 25  1  0  0  0  0
 20  4  1  1  0  0  0
  4 60  1  0  0  0  0
 23  5  1  6  0  0  0
  5 65  1  0  0  0  0
  6 27  1  0  0  0  0
  6 70  1  0  0  0  0
  7 27  2  0  0  0  0
  8  9  1  0  0  0  0
  8 10  1  1  0  0  0
  8 33  1  0  0  0  0
  9 11  1  0  0  0  0
  9 19  1  6  0  0  0
  9 34  1  0  0  0  0
 10 13  1  0  0  0  0
 10 35  1  0  0  0  0
 10 36  1  0  0  0  0
 11 14  1  0  0  0  0
 11 37  1  0  0  0  0
 11 38  1  0  0  0  0
 12 14  1  0  0  0  0
 12 18  1  6  0  0  0
 12 39  1  0  0  0  0
 13 16  1  0  0  0  0
 13 40  1  0  0  0  0
 14 41  1  0  0  0  0
 14 42  1  0  0  0  0
 15 16  1  6  0  0  0
 15 17  1  0  0  0  0
 15 43  1  0  0  0  0
 16 44  1  0  0  0  0
 16 45  1  0  0  0  0
 17 20  1  0  0  0  0
 17 46  1  0  0  0  0
 17 47  1  0  0  0  0
 18 23  1  0  0  0  0
 18 48  1  0  0  0  0
 18 49  1  0  0  0  0
 19 50  1  0  0  0  0
 19 51  1  0  0  0  0
 19 52  1  0  0  0  0
 20 22  1  0  0  0  0
 20 53  1  0  0  0  0
 21 22  1  0  0  0  0
 21 24  1  6  0  0  0
 21 54  1  0  0  0  0
 22 55  1  0  0  0  0
 22 56  1  0  0  0  0
 23 26  1  0  0  0  0
 23 57  1  0  0  0  0
 24 27  1  0  0  0  0
 24 58  1  0  0  0  0
 24 59  1  0  0  0  0
 25 61  1  0  0  0  0
 25 62  1  0  0  0  0
 25 63  1  0  0  0  0
 26 28  2  0  0  0  0
 26 64  1  0  0  0  0
 28 29  1  0  0  0  0
 28 66  1  0  0  0  0
 29 30  1  0  0  0  0
 29 67  1  0  0  0  0
 29 68  1  0  0  0  0
 30 31  1  0  0  0  0
 30 32  1  0  0  0  0
 30 69  1  0  0  0  0
 31 71  1  0  0  0  0
 31 72  1  0  0  0  0
 31 73  1  0  0  0  0
 32 74  1  0  0  0  0
 32 75  1  0  0  0  0
 32 76  1  0  0  0  0
M  END
> <PUBCHEM_COMPOUND_CID>
11282498

> <PUBCHEM_COMPOUND_CANONICALIZED>
1

> <PUBCHEM_CACTVS_COMPLEXITY>
579

> <PUBCHEM_CACTVS_HBOND_ACCEPTOR>
7

> <PUBCHEM_CACTVS_HBOND_DONOR>
3

> <PUBCHEM_CACTVS_ROTATABLE_BOND>
12

> <PUBCHEM_CACTVS_SUBSKEYS>
AAADcfB4OAAAAAAAAAAAAAAAAAAAAAAAAAAkSAAAAAAAAAAAAAAAGgAACAAADRSggAICCAAABgCIACDSCAAAAAAgAAAICAEAAAgAFBYAAQACUAAFoAAIEAOI7OzOAAAAAAAAAAAAAAAAAAAAAAAAAAAAAA==

> <PUBCHEM_IUPAC_OPENEYE_NAME>
2-[(2R,4R,6S)-4-hydroxy-6-[(2S)-3-[(2R,3S,6S)-6-[(E,2R)-2-hydroxy-6-methyl-hept-3-enyl]-3-methyl-tetrahydropyran-2-yl]-2-methoxy-propyl]tetrahydropyran-2-yl]acetic acid

> <PUBCHEM_IUPAC_CAS_NAME>
2-[(2R,4R,6S)-4-hydroxy-6-[(2S)-3-[(2R,3S,6S)-6-[(E,2R)-2-hydroxy-6-methylhept-3-enyl]-3-methyl-2-oxanyl]-2-methoxypropyl]-2-oxanyl]acetic acid

> <PUBCHEM_IUPAC_NAME_MARKUP>
2-[(2<I>R</I>,4<I>R</I>,6<I>S</I>)-4-hydroxy-6-[(2<I>S</I>)-3-[(2<I>R</I>,3<I>S</I>,6<I>S</I>)-6-[(<I>E</I>,2<I>R</I>)-2-hydroxy-6-methylhept-3-enyl]-3-methyloxan-2-yl]-2-methoxypropyl]oxan-2-yl]acetic acid

> <PUBCHEM_IUPAC_NAME>
2-[(2R,4R,6S)-4-hydroxy-6-[(2S)-3-[(2R,3S,6S)-6-[(E,2R)-2-hydroxy-6-methylhept-3-enyl]-3-methyloxan-2-yl]-2-methoxypropyl]oxan-2-yl]acetic acid

> <PUBCHEM_IUPAC_SYSTEMATIC_NAME>
2-[(2R,4R,6S)-6-[(2S)-2-methoxy-3-[(2R,3S,6S)-3-methyl-6-[(E,2R)-6-methyl-2-oxidanyl-hept-3-enyl]oxan-2-yl]propyl]-4-oxidanyl-oxan-2-yl]ethanoic acid

> <PUBCHEM_IUPAC_TRADITIONAL_NAME>
2-[(2R,4R,6S)-4-hydroxy-6-[(2S)-3-[(2R,3S,6S)-6-[(E,2R)-2-hydroxy-6-methyl-hept-3-enyl]-3-methyl-tetrahydropyran-2-yl]-2-methoxy-propyl]tetrahydropyran-2-yl]acetic acid

> <PUBCHEM_IUPAC_INCHI>
InChI=1S/C25H44O7/c1-16(2)6-5-7-18(26)10-20-9-8-17(3)24(32-20)14-21(30-4)13-22-11-19(27)12-23(31-22)15-25(28)29/h5,7,16-24,26-27H,6,8-15H2,1-4H3,(H,28,29)/b7-5+/t17-,18-,19+,20-,21-,22-,23+,24+/m0/s1

> <PUBCHEM_IUPAC_INCHIKEY>
GHLKNKZVKNKVKV-GSELNYPNSA-N

> <PUBCHEM_XLOGP3_AA>
3.3

> <PUBCHEM_EXACT_MASS>
456.30870374

> <PUBCHEM_MOLECULAR_FORMULA>
C25H44O7

> <PUBCHEM_MOLECULAR_WEIGHT>
456.6

> <PUBCHEM_OPENEYE_CAN_SMILES>
CC1CCC(OC1CC(CC2CC(CC(O2)CC(=O)O)O)OC)CC(C=CCC(C)C)O

> <PUBCHEM_OPENEYE_ISO_SMILES>
C[C@H]1CC[C@H](O[C@@H]1C[C@H](C[C@@H]2C[C@H](C[C@@H](O2)CC(=O)O)O)OC)C[C@H](/C=C/CC(C)C)O

> <PUBCHEM_CACTVS_TPSA>
105

> <PUBCHEM_MONOISOTOPIC_WEIGHT>
456.30870374

> <PUBCHEM_TOTAL_CHARGE>
0

> <PUBCHEM_HEAVY_ATOM_COUNT>
32

> <PUBCHEM_ATOM_DEF_STEREO_COUNT>
8

> <PUBCHEM_ATOM_UDEF_STEREO_COUNT>
0

> <PUBCHEM_BOND_DEF_STEREO_COUNT>
1

> <PUBCHEM_BOND_UDEF_STEREO_COUNT>
0

> <PUBCHEM_ISOTOPIC_ATOM_COUNT>
0

> <PUBCHEM_COMPONENT_COUNT>
1

> <PUBCHEM_CACTVS_TAUTO_COUNT>
-1

> <PUBCHEM_COORDINATE_TYPE>
1
5
255

> <PUBCHEM_BONDANNOTATIONS>
12  18  6
15  16  6
21  24  6
13  3  5
20  4  5
23  5  6
8  10  5
9  19  6

$$$$
