 
  -OEChem-10192103272D

 73 73  0     1  0  0  0  0  0999 V2000
    6.2633   -4.3026    0.0000 O   0  0  0  0  0  0  0  0  0  0  0  0
    3.6942   -3.9936    0.0000 O   0  0  0  0  0  0  0  0  0  0  0  0
    4.3665   -6.0626    0.0000 O   0  0  0  0  0  0  0  0  0  0  0  0
    4.5883   -2.2148    0.0000 O   0  0  0  0  0  0  0  0  0  0  0  0
    6.3203   -1.2148    0.0000 O   0  0  0  0  0  0  0  0  0  0  0  0
    3.1590   -5.6408    0.0000 O   0  0  0  0  0  0  0  0  0  0  0  0
    5.7678   -7.0807    0.0000 O   0  0  0  0  0  0  0  0  0  0  0  0
    8.0524   -1.2148    0.0000 O   0  0  0  0  0  0  0  0  0  0  0  0
    5.4543   -0.7148    0.0000 O   0  0  0  0  0  0  0  0  0  0  0  0
    5.4543   -3.7148    0.0000 C   0  0  1  0  0  0  0  0  0  0  0  0
    4.6453   -4.3026    0.0000 C   0  0  1  0  0  0  0  0  0  0  0  0
    4.9543   -5.2536    0.0000 C   0  0  2  0  0  0  0  0  0  0  0  0
    5.4543   -2.7148    0.0000 C   0  0  1  0  0  0  0  0  0  0  0  0
    5.9543   -5.2536    0.0000 C   0  0  0  0  0  0  0  0  0  0  0  0
    6.3203   -2.2148    0.0000 C   0  0  0  0  0  0  0  0  0  0  0  0
    8.9184    3.2852    0.0000 C   0  0  0  0  0  0  0  0  0  0  0  0
    8.9184    2.2852    0.0000 C   0  0  0  0  0  0  0  0  0  0  0  0
    8.0524    1.7852    0.0000 C   0  0  0  0  0  0  0  0  0  0  0  0
    9.7844    3.7852    0.0000 C   0  0  0  0  0  0  0  0  0  0  0  0
    2.9511   -4.6627    0.0000 C   0  0  0  0  0  0  0  0  0  0  0  0
    8.0524    0.7852    0.0000 C   0  0  0  0  0  0  0  0  0  0  0  0
    9.7844    4.7852    0.0000 C   0  0  0  0  0  0  0  0  0  0  0  0
    4.7732   -6.9762    0.0000 C   0  0  0  0  0  0  0  0  0  0  0  0
    7.1863    0.2852    0.0000 C   0  0  0  0  0  0  0  0  0  0  0  0
   10.6504    5.2852    0.0000 C   0  0  0  0  0  0  0  0  0  0  0  0
    7.1863   -0.7148    0.0000 C   0  0  0  0  0  0  0  0  0  0  0  0
    4.5883   -1.2148    0.0000 C   0  0  0  0  0  0  0  0  0  0  0  0
   10.6504    6.2852    0.0000 C   0  0  0  0  0  0  0  0  0  0  0  0
    2.0000   -4.3537    0.0000 C   0  0  0  0  0  0  0  0  0  0  0  0
    4.1854   -7.7852    0.0000 C   0  0  0  0  0  0  0  0  0  0  0  0
   11.5165    6.7852    0.0000 C   0  0  0  0  0  0  0  0  0  0  0  0
    3.7222   -0.7148    0.0000 C   0  0  0  0  0  0  0  0  0  0  0  0
   11.5165    7.7852    0.0000 C   0  0  0  0  0  0  0  0  0  0  0  0
    6.2116   -3.3289    0.0000 H   0  0  0  0  0  0  0  0  0  0  0  0
    4.5483   -3.6902    0.0000 H   0  0  0  0  0  0  0  0  0  0  0  0
    4.3419   -5.1566    0.0000 H   0  0  0  0  0  0  0  0  0  0  0  0
    4.9173   -3.0248    0.0000 H   0  0  0  0  0  0  0  0  0  0  0  0
    5.8895   -5.8702    0.0000 H   0  0  0  0  0  0  0  0  0  0  0  0
    6.5607   -5.3825    0.0000 H   0  0  0  0  0  0  0  0  0  0  0  0
    6.5324   -2.7974    0.0000 H   0  0  0  0  0  0  0  0  0  0  0  0
    6.9309   -2.1071    0.0000 H   0  0  0  0  0  0  0  0  0  0  0  0
    8.7063    3.8678    0.0000 H   0  0  0  0  0  0  0  0  0  0  0  0
    8.3078    3.1776    0.0000 H   0  0  0  0  0  0  0  0  0  0  0  0
    9.1304    1.7026    0.0000 H   0  0  0  0  0  0  0  0  0  0  0  0
    9.5290    2.3929    0.0000 H   0  0  0  0  0  0  0  0  0  0  0  0
    9.9964    3.2026    0.0000 H   0  0  0  0  0  0  0  0  0  0  0  0
   10.3950    3.8929    0.0000 H   0  0  0  0  0  0  0  0  0  0  0  0
    7.8403    2.3678    0.0000 H   0  0  0  0  0  0  0  0  0  0  0  0
    7.4418    1.6776    0.0000 H   0  0  0  0  0  0  0  0  0  0  0  0
    8.2644    0.2026    0.0000 H   0  0  0  0  0  0  0  0  0  0  0  0
    8.6629    0.8929    0.0000 H   0  0  0  0  0  0  0  0  0  0  0  0
    9.5724    5.3678    0.0000 H   0  0  0  0  0  0  0  0  0  0  0  0
    9.1738    4.6776    0.0000 H   0  0  0  0  0  0  0  0  0  0  0  0
    6.9743    0.8678    0.0000 H   0  0  0  0  0  0  0  0  0  0  0  0
    6.5757    0.1775    0.0000 H   0  0  0  0  0  0  0  0  0  0  0  0
   10.8625    4.7026    0.0000 H   0  0  0  0  0  0  0  0  0  0  0  0
   11.2610    5.3929    0.0000 H   0  0  0  0  0  0  0  0  0  0  0  0
   10.4384    6.8678    0.0000 H   0  0  0  0  0  0  0  0  0  0  0  0
   10.0398    6.1776    0.0000 H   0  0  0  0  0  0  0  0  0  0  0  0
    2.1916   -3.7640    0.0000 H   0  0  0  0  0  0  0  0  0  0  0  0
    1.4103   -4.1621    0.0000 H   0  0  0  0  0  0  0  0  0  0  0  0
    1.8084   -4.9433    0.0000 H   0  0  0  0  0  0  0  0  0  0  0  0
    3.6838   -7.4208    0.0000 H   0  0  0  0  0  0  0  0  0  0  0  0
    3.8210   -8.2868    0.0000 H   0  0  0  0  0  0  0  0  0  0  0  0
    4.6870   -8.1496    0.0000 H   0  0  0  0  0  0  0  0  0  0  0  0
   11.7285    6.2026    0.0000 H   0  0  0  0  0  0  0  0  0  0  0  0
   12.1270    6.8929    0.0000 H   0  0  0  0  0  0  0  0  0  0  0  0
    4.0322   -0.1779    0.0000 H   0  0  0  0  0  0  0  0  0  0  0  0
    3.1853   -0.4048    0.0000 H   0  0  0  0  0  0  0  0  0  0  0  0
    3.4122   -1.2517    0.0000 H   0  0  0  0  0  0  0  0  0  0  0  0
   12.1365    7.7852    0.0000 H   0  0  0  0  0  0  0  0  0  0  0  0
   11.5165    8.4052    0.0000 H   0  0  0  0  0  0  0  0  0  0  0  0
   10.8965    7.7852    0.0000 H   0  0  0  0  0  0  0  0  0  0  0  0
  1 10  1  0  0  0  0
  1 14  1  0  0  0  0
 11  2  1  1  0  0  0
  2 20  1  0  0  0  0
 12  3  1  6  0  0  0
  3 23  1  0  0  0  0
 13  4  1  6  0  0  0
  4 27  1  0  0  0  0
  5 15  1  0  0  0  0
  5 26  1  0  0  0  0
  6 20  2  0  0  0  0
  7 23  2  0  0  0  0
  8 26  2  0  0  0  0
  9 27  2  0  0  0  0
 10 11  1  0  0  0  0
 10 13  1  0  0  0  0
 10 34  1  6  0  0  0
 11 12  1  0  0  0  0
 11 35  1  0  0  0  0
 12 14  1  0  0  0  0
 12 36  1  0  0  0  0
 13 15  1  0  0  0  0
 13 37  1  0  0  0  0
 14 38  1  0  0  0  0
 14 39  1  0  0  0  0
 15 40  1  0  0  0  0
 15 41  1  0  0  0  0
 16 17  1  0  0  0  0
 16 19  1  0  0  0  0
 16 42  1  0  0  0  0
 16 43  1  0  0  0  0
 17 18  1  0  0  0  0
 17 44  1  0  0  0  0
 17 45  1  0  0  0  0
 18 21  1  0  0  0  0
 18 48  1  0  0  0  0
 18 49  1  0  0  0  0
 19 22  1  0  0  0  0
 19 46  1  0  0  0  0
 19 47  1  0  0  0  0
 20 29  1  0  0  0  0
 21 24  1  0  0  0  0
 21 50  1  0  0  0  0
 21 51  1  0  0  0  0
 22 25  1  0  0  0  0
 22 52  1  0  0  0  0
 22 53  1  0  0  0  0
 23 30  1  0  0  0  0
 24 26  1  0  0  0  0
 24 54  1  0  0  0  0
 24 55  1  0  0  0  0
 25 28  1  0  0  0  0
 25 56  1  0  0  0  0
 25 57  1  0  0  0  0
 27 32  1  0  0  0  0
 28 31  1  0  0  0  0
 28 58  1  0  0  0  0
 28 59  1  0  0  0  0
 29 60  1  0  0  0  0
 29 61  1  0  0  0  0
 29 62  1  0  0  0  0
 30 63  1  0  0  0  0
 30 64  1  0  0  0  0
 30 65  1  0  0  0  0
 31 33  1  0  0  0  0
 31 66  1  0  0  0  0
 31 67  1  0  0  0  0
 32 68  1  0  0  0  0
 32 69  1  0  0  0  0
 32 70  1  0  0  0  0
 33 71  1  0  0  0  0
 33 72  1  0  0  0  0
 33 73  1  0  0  0  0
M  END
> <PUBCHEM_COMPOUND_CID>
57596231

> <PUBCHEM_COMPOUND_CANONICALIZED>
1

> <PUBCHEM_CACTVS_COMPLEXITY>
619

> <PUBCHEM_CACTVS_HBOND_ACCEPTOR>
9

> <PUBCHEM_CACTVS_HBOND_DONOR>
0

> <PUBCHEM_CACTVS_ROTATABLE_BOND>
20

> <PUBCHEM_CACTVS_SUBSKEYS>
AAADcfB4PAAAAAAAAAAAAAAAAAAAASAAAAAAAAAAAAAAAAAAAAAAGgAAAAAACBSggAICCAAABAAIAACQCAAAAAAAAAAAAAEAAAABABIAAAACAAAFAAACAAHI6KyAAAAAAAAAAAAAAAAAAAAAAAAAAAAAAA==

> <PUBCHEM_IUPAC_OPENEYE_NAME>
[(2R)-2-acetoxy-2-[(2R,3R,4S)-3,4-diacetoxytetrahydrofuran-2-yl]ethyl] dodecanoate

> <PUBCHEM_IUPAC_CAS_NAME>
dodecanoic acid [(2R)-2-acetyloxy-2-[(2R,3R,4S)-3,4-diacetyloxy-2-oxolanyl]ethyl] ester

> <PUBCHEM_IUPAC_NAME_MARKUP>
[(2<I>R</I>)-2-acetyloxy-2-[(2<I>R</I>,3<I>R</I>,4<I>S</I>)-3,4-diacetyloxyoxolan-2-yl]ethyl] dodecanoate

> <PUBCHEM_IUPAC_NAME>
[(2R)-2-acetyloxy-2-[(2R,3R,4S)-3,4-diacetyloxyoxolan-2-yl]ethyl] dodecanoate

> <PUBCHEM_IUPAC_SYSTEMATIC_NAME>
[(2R)-2-acetyloxy-2-[(2R,3R,4S)-3,4-diacetyloxyoxolan-2-yl]ethyl] dodecanoate

> <PUBCHEM_IUPAC_TRADITIONAL_NAME>
lauric acid [(2R)-2-acetoxy-2-[(2R,3R,4S)-3,4-diacetoxytetrahydrofuran-2-yl]ethyl] ester

> <PUBCHEM_IUPAC_INCHI>
InChI=1S/C24H40O9/c1-5-6-7-8-9-10-11-12-13-14-22(28)29-15-20(31-17(2)25)23-24(33-19(4)27)21(16-30-23)32-18(3)26/h20-21,23-24H,5-16H2,1-4H3/t20-,21+,23-,24-/m1/s1

> <PUBCHEM_IUPAC_INCHIKEY>
TUYYMRTWRUKSLQ-CBJLPSGESA-N

> <PUBCHEM_XLOGP3_AA>
4.8

> <PUBCHEM_EXACT_MASS>
472.26723285

> <PUBCHEM_MOLECULAR_FORMULA>
C24H40O9

> <PUBCHEM_MOLECULAR_WEIGHT>
472.6

> <PUBCHEM_OPENEYE_CAN_SMILES>
CCCCCCCCCCCC(=O)OCC(C1C(C(CO1)OC(=O)C)OC(=O)C)OC(=O)C

> <PUBCHEM_OPENEYE_ISO_SMILES>
CCCCCCCCCCCC(=O)OC[C@H]([C@@H]1[C@@H]([C@H](CO1)OC(=O)C)OC(=O)C)OC(=O)C

> <PUBCHEM_CACTVS_TPSA>
114

> <PUBCHEM_MONOISOTOPIC_WEIGHT>
472.26723285

> <PUBCHEM_TOTAL_CHARGE>
0

> <PUBCHEM_HEAVY_ATOM_COUNT>
33

> <PUBCHEM_ATOM_DEF_STEREO_COUNT>
4

> <PUBCHEM_ATOM_UDEF_STEREO_COUNT>
0

> <PUBCHEM_BOND_DEF_STEREO_COUNT>
0

> <PUBCHEM_BOND_UDEF_STEREO_COUNT>
0

> <PUBCHEM_ISOTOPIC_ATOM_COUNT>
0

> <PUBCHEM_COMPONENT_COUNT>
1

> <PUBCHEM_CACTVS_TAUTO_COUNT>
-1

> <PUBCHEM_COORDINATE_TYPE>
1
5
255

> <PUBCHEM_BONDANNOTATIONS>
10  34  6
11  2  5
12  3  6
13  4  6

$$$$
