 
  -OEChem-10192104372D

 45 44  0     1  0  0  0  0  0999 V2000
    3.4030   -0.4050    0.0000 P   0  0  0  0  0  0  0  0  0  0  0  0
    7.7331    0.0950    0.0000 O   0  0  0  0  0  0  0  0  0  0  0  0
    6.0010    1.0950    0.0000 O   0  0  0  0  0  0  0  0  0  0  0  0
    4.2690    0.0950    0.0000 O   0  0  0  0  0  0  0  0  0  0  0  0
    8.5991   -1.4050    0.0000 O   0  0  0  0  0  0  0  0  0  0  0  0
   16.3933    0.0950    0.0000 O   0  0  0  0  0  0  0  0  0  0  0  0
   15.5273   -1.4050    0.0000 O   0  0  0  0  0  0  0  0  0  0  0  0
    2.5369   -0.9050    0.0000 O   0  0  0  0  0  0  0  0  0  0  0  0
    2.9030    0.4610    0.0000 O   0  0  0  0  0  0  0  0  0  0  0  0
    3.9030   -1.2710    0.0000 O   0  0  0  0  0  0  0  0  0  0  0  0
   12.0632   -0.4050    0.0000 C   0  0  0  0  0  0  0  0  0  0  0  0
   11.1972    0.0950    0.0000 C   0  0  0  0  0  0  0  0  0  0  0  0
   12.9292    0.0950    0.0000 C   0  0  0  0  0  0  0  0  0  0  0  0
   10.3312   -0.4050    0.0000 C   0  0  0  0  0  0  0  0  0  0  0  0
   13.7953   -0.4050    0.0000 C   0  0  0  0  0  0  0  0  0  0  0  0
    9.4651    0.0950    0.0000 C   0  0  0  0  0  0  0  0  0  0  0  0
   14.6613    0.0950    0.0000 C   0  0  0  0  0  0  0  0  0  0  0  0
    8.5991   -0.4050    0.0000 C   0  0  0  0  0  0  0  0  0  0  0  0
    6.0010    0.0950    0.0000 C   0  0  3  0  0  0  0  0  0  0  0  0
    6.8671   -0.4050    0.0000 C   0  0  0  0  0  0  0  0  0  0  0  0
    5.1350   -0.4050    0.0000 C   0  0  0  0  0  0  0  0  0  0  0  0
   15.5273   -0.4050    0.0000 C   0  0  0  0  0  0  0  0  0  0  0  0
   11.6647   -0.8799    0.0000 H   0  0  0  0  0  0  0  0  0  0  0  0
   12.4617   -0.8799    0.0000 H   0  0  0  0  0  0  0  0  0  0  0  0
   11.5957    0.5699    0.0000 H   0  0  0  0  0  0  0  0  0  0  0  0
   10.7987    0.5699    0.0000 H   0  0  0  0  0  0  0  0  0  0  0  0
   13.3278    0.5699    0.0000 H   0  0  0  0  0  0  0  0  0  0  0  0
   12.5307    0.5699    0.0000 H   0  0  0  0  0  0  0  0  0  0  0  0
    9.9326   -0.8799    0.0000 H   0  0  0  0  0  0  0  0  0  0  0  0
   10.7297   -0.8799    0.0000 H   0  0  0  0  0  0  0  0  0  0  0  0
   13.3967   -0.8799    0.0000 H   0  0  0  0  0  0  0  0  0  0  0  0
   14.1938   -0.8799    0.0000 H   0  0  0  0  0  0  0  0  0  0  0  0
    9.8637    0.5699    0.0000 H   0  0  0  0  0  0  0  0  0  0  0  0
    9.0666    0.5699    0.0000 H   0  0  0  0  0  0  0  0  0  0  0  0
   15.0598    0.5699    0.0000 H   0  0  0  0  0  0  0  0  0  0  0  0
   14.2628    0.5699    0.0000 H   0  0  0  0  0  0  0  0  0  0  0  0
    6.5380    0.4050    0.0000 H   0  0  0  0  0  0  0  0  0  0  0  0
    6.4685   -0.8799    0.0000 H   0  0  0  0  0  0  0  0  0  0  0  0
    7.2656   -0.8799    0.0000 H   0  0  0  0  0  0  0  0  0  0  0  0
    4.7365   -0.8799    0.0000 H   0  0  0  0  0  0  0  0  0  0  0  0
    5.5335   -0.8799    0.0000 H   0  0  0  0  0  0  0  0  0  0  0  0
    6.5380    1.4050    0.0000 H   0  0  0  0  0  0  0  0  0  0  0  0
   16.9303   -0.2150    0.0000 H   0  0  0  0  0  0  0  0  0  0  0  0
    2.0000   -0.5950    0.0000 H   0  0  0  0  0  0  0  0  0  0  0  0
    3.2130    0.9980    0.0000 H   0  0  0  0  0  0  0  0  0  0  0  0
  1  4  1  0  0  0  0
  1  8  1  0  0  0  0
  1  9  1  0  0  0  0
  1 10  2  0  0  0  0
  2 18  1  0  0  0  0
  2 20  1  0  0  0  0
  3 19  1  0  0  0  0
  3 42  1  0  0  0  0
  4 21  1  0  0  0  0
  5 18  2  0  0  0  0
  6 22  1  0  0  0  0
  6 43  1  0  0  0  0
  7 22  2  0  0  0  0
  8 44  1  0  0  0  0
  9 45  1  0  0  0  0
 11 12  1  0  0  0  0
 11 13  1  0  0  0  0
 11 23  1  0  0  0  0
 11 24  1  0  0  0  0
 12 14  1  0  0  0  0
 12 25  1  0  0  0  0
 12 26  1  0  0  0  0
 13 15  1  0  0  0  0
 13 27  1  0  0  0  0
 13 28  1  0  0  0  0
 14 16  1  0  0  0  0
 14 29  1  0  0  0  0
 14 30  1  0  0  0  0
 15 17  1  0  0  0  0
 15 31  1  0  0  0  0
 15 32  1  0  0  0  0
 16 18  1  0  0  0  0
 16 33  1  0  0  0  0
 16 34  1  0  0  0  0
 17 22  1  0  0  0  0
 17 35  1  0  0  0  0
 17 36  1  0  0  0  0
 19 20  1  0  0  0  0
 19 21  1  0  0  0  0
 19 37  1  0  0  0  0
 20 38  1  0  0  0  0
 20 39  1  0  0  0  0
 21 40  1  0  0  0  0
 21 41  1  0  0  0  0
M  END
> <PUBCHEM_COMPOUND_CID>
58750524

> <PUBCHEM_COMPOUND_CANONICALIZED>
1

> <PUBCHEM_CACTVS_COMPLEXITY>
379

> <PUBCHEM_CACTVS_HBOND_ACCEPTOR>
9

> <PUBCHEM_CACTVS_HBOND_DONOR>
4

> <PUBCHEM_CACTVS_ROTATABLE_BOND>
14

> <PUBCHEM_CACTVS_SUBSKEYS>
AAADceBwPAIAAAAAAAAAAAAAAAAAAAAAAAAAAAAAAAAAAAAAAAAAGgAACCAACBSggAIACAAABxAIQACQCIAAAAAAAAAAAAEAAAABEBIAAAACQAAFAAADAAGIyKCAAAAAAAAAAAAAAAAAAAAAAAAAAAAAAA==

> <PUBCHEM_IUPAC_OPENEYE_NAME>
9-(2-hydroxy-3-phosphonooxy-propoxy)-9-oxo-nonanoic acid

> <PUBCHEM_IUPAC_CAS_NAME>
9-(2-hydroxy-3-phosphonooxypropoxy)-9-oxononanoic acid

> <PUBCHEM_IUPAC_NAME_MARKUP>
9-(2-hydroxy-3-phosphonooxypropoxy)-9-oxononanoic acid

> <PUBCHEM_IUPAC_NAME>
9-(2-hydroxy-3-phosphonooxypropoxy)-9-oxononanoic acid

> <PUBCHEM_IUPAC_SYSTEMATIC_NAME>
9-oxidanylidene-9-(2-oxidanyl-3-phosphonooxy-propoxy)nonanoic acid

> <PUBCHEM_IUPAC_TRADITIONAL_NAME>
9-(2-hydroxy-3-phosphonooxy-propoxy)-9-keto-pelargonic acid

> <PUBCHEM_IUPAC_INCHI>
InChI=1S/C12H23O9P/c13-10(9-21-22(17,18)19)8-20-12(16)7-5-3-1-2-4-6-11(14)15/h10,13H,1-9H2,(H,14,15)(H2,17,18,19)

> <PUBCHEM_IUPAC_INCHIKEY>
GFQGGRKMODEKMD-UHFFFAOYSA-N

> <PUBCHEM_XLOGP3_AA>
-0.5

> <PUBCHEM_EXACT_MASS>
342.10796930

> <PUBCHEM_MOLECULAR_FORMULA>
C12H23O9P

> <PUBCHEM_MOLECULAR_WEIGHT>
342.28

> <PUBCHEM_OPENEYE_CAN_SMILES>
C(CCCC(=O)O)CCCC(=O)OCC(COP(=O)(O)O)O

> <PUBCHEM_OPENEYE_ISO_SMILES>
C(CCCC(=O)O)CCCC(=O)OCC(COP(=O)(O)O)O

> <PUBCHEM_CACTVS_TPSA>
151

> <PUBCHEM_MONOISOTOPIC_WEIGHT>
342.10796930

> <PUBCHEM_TOTAL_CHARGE>
0

> <PUBCHEM_HEAVY_ATOM_COUNT>
22

> <PUBCHEM_ATOM_DEF_STEREO_COUNT>
0

> <PUBCHEM_ATOM_UDEF_STEREO_COUNT>
1

> <PUBCHEM_BOND_DEF_STEREO_COUNT>
0

> <PUBCHEM_BOND_UDEF_STEREO_COUNT>
0

> <PUBCHEM_ISOTOPIC_ATOM_COUNT>
0

> <PUBCHEM_COMPONENT_COUNT>
1

> <PUBCHEM_CACTVS_TAUTO_COUNT>
-1

> <PUBCHEM_COORDINATE_TYPE>
1
5
255

> <PUBCHEM_BONDANNOTATIONS>
19  3  3

$$$$
