 
  -OEChem-10192104122D

 68 69  0     1  0  0  0  0  0999 V2000
    9.4651   -0.5950    0.0000 O   0  0  0  0  0  0  0  0  0  0  0  0
    7.7331   -0.5950    0.0000 O   0  0  0  0  0  0  0  0  0  0  0  0
    8.5991    1.9050    0.0000 O   0  0  0  0  0  0  0  0  0  0  0  0
   11.1972    0.4050    0.0000 O   0  0  0  0  0  0  0  0  0  0  0  0
    9.4651   -2.5950    0.0000 O   0  0  0  0  0  0  0  0  0  0  0  0
    7.7331   -3.5950    0.0000 O   0  0  0  0  0  0  0  0  0  0  0  0
    6.0010   -2.5950    0.0000 O   0  0  0  0  0  0  0  0  0  0  0  0
   11.1972    2.4050    0.0000 O   0  0  0  0  0  0  0  0  0  0  0  0
    6.8671    0.9050    0.0000 O   0  0  0  0  0  0  0  0  0  0  0  0
    9.4651    3.4050    0.0000 O   0  0  0  0  0  0  0  0  0  0  0  0
    5.1350   -1.0950    0.0000 O   0  0  0  0  0  0  0  0  0  0  0  0
    6.0010    3.4050    0.0000 O   0  0  0  0  0  0  0  0  0  0  0  0
    2.5369   -0.5950    0.0000 O   0  0  0  0  0  0  0  0  0  0  0  0
    9.4651    0.4050    0.0000 C   0  0  1  0  0  0  0  0  0  0  0  0
   10.3312    0.9050    0.0000 C   0  0  3  0  0  0  0  0  0  0  0  0
    8.5991   -1.0950    0.0000 C   0  0  2  0  0  0  0  0  0  0  0  0
    8.5991    0.9050    0.0000 C   0  0  1  0  0  0  0  0  0  0  0  0
    8.5991   -2.0950    0.0000 C   0  0  3  0  0  0  0  0  0  0  0  0
    7.7331   -2.5950    0.0000 C   0  0  2  0  0  0  0  0  0  0  0  0
    6.8671   -2.0950    0.0000 C   0  0  2  0  0  0  0  0  0  0  0  0
    6.8671   -1.0950    0.0000 C   0  0  3  0  0  0  0  0  0  0  0  0
   10.3312    1.9050    0.0000 C   0  0  3  0  0  0  0  0  0  0  0  0
    9.4651    2.4050    0.0000 C   0  0  2  0  0  0  0  0  0  0  0  0
    7.7331    0.4050    0.0000 C   0  0  0  0  0  0  0  0  0  0  0  0
    6.0010   -0.5950    0.0000 C   0  0  0  0  0  0  0  0  0  0  0  0
    6.8671    1.9050    0.0000 C   0  0  0  0  0  0  0  0  0  0  0  0
    4.2690   -0.5950    0.0000 C   0  0  0  0  0  0  0  0  0  0  0  0
    6.0010    2.4050    0.0000 C   0  0  3  0  0  0  0  0  0  0  0  0
    3.4030   -1.0950    0.0000 C   0  0  3  0  0  0  0  0  0  0  0  0
    5.1350    1.9050    0.0000 C   0  0  0  0  0  0  0  0  0  0  0  0
    3.4030   -2.0950    0.0000 C   0  0  0  0  0  0  0  0  0  0  0  0
    5.1350    3.9050    0.0000 C   0  0  0  0  0  0  0  0  0  0  0  0
   10.0021    0.0950    0.0000 H   0  0  0  0  0  0  0  0  0  0  0  0
   10.8681    1.2150    0.0000 H   0  0  0  0  0  0  0  0  0  0  0  0
    8.5991   -0.4750    0.0000 H   0  0  0  0  0  0  0  0  0  0  0  0
    8.0622    1.2150    0.0000 H   0  0  0  0  0  0  0  0  0  0  0  0
    8.5991   -2.7150    0.0000 H   0  0  0  0  0  0  0  0  0  0  0  0
    7.1962   -2.9050    0.0000 H   0  0  0  0  0  0  0  0  0  0  0  0
    6.3301   -1.7850    0.0000 H   0  0  0  0  0  0  0  0  0  0  0  0
    6.8671   -0.4750    0.0000 H   0  0  0  0  0  0  0  0  0  0  0  0
   10.8681    1.5950    0.0000 H   0  0  0  0  0  0  0  0  0  0  0  0
   10.0021    2.7150    0.0000 H   0  0  0  0  0  0  0  0  0  0  0  0
    7.3346   -0.0699    0.0000 H   0  0  0  0  0  0  0  0  0  0  0  0
    8.1316   -0.0699    0.0000 H   0  0  0  0  0  0  0  0  0  0  0  0
    6.3996   -0.1201    0.0000 H   0  0  0  0  0  0  0  0  0  0  0  0
    5.6025   -0.1201    0.0000 H   0  0  0  0  0  0  0  0  0  0  0  0
   11.7341    0.7150    0.0000 H   0  0  0  0  0  0  0  0  0  0  0  0
    9.4651   -3.2150    0.0000 H   0  0  0  0  0  0  0  0  0  0  0  0
    7.1962   -3.9050    0.0000 H   0  0  0  0  0  0  0  0  0  0  0  0
    6.0010   -3.2150    0.0000 H   0  0  0  0  0  0  0  0  0  0  0  0
   11.1972    3.0250    0.0000 H   0  0  0  0  0  0  0  0  0  0  0  0
    8.9282    3.7150    0.0000 H   0  0  0  0  0  0  0  0  0  0  0  0
    7.4776    1.7973    0.0000 H   0  0  0  0  0  0  0  0  0  0  0  0
    7.0791    2.4876    0.0000 H   0  0  0  0  0  0  0  0  0  0  0  0
    4.6675   -0.1201    0.0000 H   0  0  0  0  0  0  0  0  0  0  0  0
    3.8705   -0.1201    0.0000 H   0  0  0  0  0  0  0  0  0  0  0  0
    6.5380    2.7150    0.0000 H   0  0  0  0  0  0  0  0  0  0  0  0
    3.4030   -0.4750    0.0000 H   0  0  0  0  0  0  0  0  0  0  0  0
    4.8250    2.4419    0.0000 H   0  0  0  0  0  0  0  0  0  0  0  0
    4.5981    1.5950    0.0000 H   0  0  0  0  0  0  0  0  0  0  0  0
    5.4450    1.3681    0.0000 H   0  0  0  0  0  0  0  0  0  0  0  0
    2.7830   -2.0950    0.0000 H   0  0  0  0  0  0  0  0  0  0  0  0
    3.4030   -2.7150    0.0000 H   0  0  0  0  0  0  0  0  0  0  0  0
    4.0230   -2.0950    0.0000 H   0  0  0  0  0  0  0  0  0  0  0  0
    2.0000   -0.9050    0.0000 H   0  0  0  0  0  0  0  0  0  0  0  0
    5.4450    4.4419    0.0000 H   0  0  0  0  0  0  0  0  0  0  0  0
    4.5981    4.2150    0.0000 H   0  0  0  0  0  0  0  0  0  0  0  0
    4.8250    3.3681    0.0000 H   0  0  0  0  0  0  0  0  0  0  0  0
 14  1  1  6  0  0  0
 16  1  1  1  0  0  0
  2 16  1  0  0  0  0
  2 21  1  0  0  0  0
  3 17  1  0  0  0  0
  3 23  1  0  0  0  0
  4 15  1  0  0  0  0
  4 47  1  0  0  0  0
  5 18  1  0  0  0  0
  5 48  1  0  0  0  0
 19  6  1  1  0  0  0
  6 49  1  0  0  0  0
 20  7  1  1  0  0  0
  7 50  1  0  0  0  0
  8 22  1  0  0  0  0
  8 51  1  0  0  0  0
  9 24  1  0  0  0  0
  9 26  1  0  0  0  0
 23 10  1  6  0  0  0
 10 52  1  0  0  0  0
 11 25  1  0  0  0  0
 11 27  1  0  0  0  0
 12 28  1  0  0  0  0
 12 32  1  0  0  0  0
 13 29  1  0  0  0  0
 13 65  1  0  0  0  0
 14 15  1  0  0  0  0
 14 17  1  0  0  0  0
 14 33  1  0  0  0  0
 15 22  1  0  0  0  0
 15 34  1  0  0  0  0
 16 18  1  0  0  0  0
 16 35  1  0  0  0  0
 17 24  1  1  0  0  0
 17 36  1  0  0  0  0
 18 19  1  0  0  0  0
 18 37  1  0  0  0  0
 19 20  1  0  0  0  0
 19 38  1  0  0  0  0
 20 21  1  0  0  0  0
 20 39  1  0  0  0  0
 21 25  1  0  0  0  0
 21 40  1  0  0  0  0
 22 23  1  0  0  0  0
 22 41  1  0  0  0  0
 23 42  1  0  0  0  0
 24 43  1  0  0  0  0
 24 44  1  0  0  0  0
 25 45  1  0  0  0  0
 25 46  1  0  0  0  0
 26 28  1  0  0  0  0
 26 53  1  0  0  0  0
 26 54  1  0  0  0  0
 27 29  1  0  0  0  0
 27 55  1  0  0  0  0
 27 56  1  0  0  0  0
 28 30  1  0  0  0  0
 28 57  1  0  0  0  0
 29 31  1  0  0  0  0
 29 58  1  0  0  0  0
 30 59  1  0  0  0  0
 30 60  1  0  0  0  0
 30 61  1  0  0  0  0
 31 62  1  0  0  0  0
 31 63  1  0  0  0  0
 31 64  1  0  0  0  0
 32 66  1  0  0  0  0
 32 67  1  0  0  0  0
 32 68  1  0  0  0  0
M  END
> <PUBCHEM_COMPOUND_CID>
58226494

> <PUBCHEM_COMPOUND_CANONICALIZED>
1

> <PUBCHEM_CACTVS_COMPLEXITY>
539

> <PUBCHEM_CACTVS_HBOND_ACCEPTOR>
13

> <PUBCHEM_CACTVS_HBOND_DONOR>
7

> <PUBCHEM_CACTVS_ROTATABLE_BOND>
11

> <PUBCHEM_CACTVS_SUBSKEYS>
AAADcfB4PAAAAAAAAAAAAAAAAAAAAAAAAAAkSAAAAAAAAAAAAAAAGgAACAAACBSwgAMCCAAABgAAAAAAAAAAAAAAAAAAAAAAAAAREAIAAAAiQAAFAAAHAAHAYAwAAAAAAAAAAAAAAAAAAAAAAAAAAAAAAA==

> <PUBCHEM_IUPAC_OPENEYE_NAME>
(3R,4S,6S)-2-(2-hydroxypropoxymethyl)-6-[(2R,3S,6S)-4,5,6-trihydroxy-2-(2-methoxypropoxymethyl)tetrahydropyran-3-yl]oxy-tetrahydropyran-3,4,5-triol

> <PUBCHEM_IUPAC_CAS_NAME>
(3R,4S,6S)-2-(2-hydroxypropoxymethyl)-6-[[(2R,3S,6S)-4,5,6-trihydroxy-2-(2-methoxypropoxymethyl)-3-oxanyl]oxy]oxane-3,4,5-triol

> <PUBCHEM_IUPAC_NAME_MARKUP>
(3<I>R</I>,4<I>S</I>,6<I>S</I>)-2-(2-hydroxypropoxymethyl)-6-[(2<I>R</I>,3<I>S</I>,6<I>S</I>)-4,5,6-trihydroxy-2-(2-methoxypropoxymethyl)oxan-3-yl]oxyoxane-3,4,5-triol

> <PUBCHEM_IUPAC_NAME>
(3R,4S,6S)-2-(2-hydroxypropoxymethyl)-6-[(2R,3S,6S)-4,5,6-trihydroxy-2-(2-methoxypropoxymethyl)oxan-3-yl]oxyoxane-3,4,5-triol

> <PUBCHEM_IUPAC_SYSTEMATIC_NAME>
(2S,4S,5R)-2-[(2R,3S,6S)-2-(2-methoxypropoxymethyl)-4,5,6-tris(oxidanyl)oxan-3-yl]oxy-6-(2-oxidanylpropoxymethyl)oxane-3,4,5-triol

> <PUBCHEM_IUPAC_TRADITIONAL_NAME>
(3R,4S,6S)-2-(2-hydroxypropoxymethyl)-6-[(2R,3S,6S)-4,5,6-trihydroxy-2-(2-methoxypropoxymethyl)tetrahydropyran-3-yl]oxy-tetrahydropyran-3,4,5-triol

> <PUBCHEM_IUPAC_INCHI>
InChI=1S/C19H36O13/c1-8(20)4-28-6-10-12(21)13(22)16(25)19(31-10)32-17-11(7-29-5-9(2)27-3)30-18(26)15(24)14(17)23/h8-26H,4-7H2,1-3H3/t8?,9?,10?,11-,12+,13+,14?,15?,16?,17-,18+,19+/m1/s1

> <PUBCHEM_IUPAC_INCHIKEY>
VPLGDRHWTQTUPO-OWSWCLKISA-N

> <PUBCHEM_XLOGP3_AA>
-4.2

> <PUBCHEM_EXACT_MASS>
472.21559120

> <PUBCHEM_MOLECULAR_FORMULA>
C19H36O13

> <PUBCHEM_MOLECULAR_WEIGHT>
472.5

> <PUBCHEM_OPENEYE_CAN_SMILES>
CC(COCC1C(C(C(C(O1)OC2C(OC(C(C2O)O)O)COCC(C)OC)O)O)O)O

> <PUBCHEM_OPENEYE_ISO_SMILES>
CC(COCC1[C@@H]([C@@H](C([C@@H](O1)O[C@@H]2[C@H](O[C@@H](C(C2O)O)O)COCC(C)OC)O)O)O)O

> <PUBCHEM_CACTVS_TPSA>
197

> <PUBCHEM_MONOISOTOPIC_WEIGHT>
472.21559120

> <PUBCHEM_TOTAL_CHARGE>
0

> <PUBCHEM_HEAVY_ATOM_COUNT>
32

> <PUBCHEM_ATOM_DEF_STEREO_COUNT>
6

> <PUBCHEM_ATOM_UDEF_STEREO_COUNT>
6

> <PUBCHEM_BOND_DEF_STEREO_COUNT>
0

> <PUBCHEM_BOND_UDEF_STEREO_COUNT>
0

> <PUBCHEM_ISOTOPIC_ATOM_COUNT>
0

> <PUBCHEM_COMPONENT_COUNT>
1

> <PUBCHEM_CACTVS_TAUTO_COUNT>
-1

> <PUBCHEM_COORDINATE_TYPE>
1
5
255

> <PUBCHEM_BONDANNOTATIONS>
14  1  6
16  1  5
23  10  6
29  13  3
17  24  5
21  25  3
28  30  3
15  4  3
18  5  3
19  6  5
20  7  5
22  8  3

$$$$
