 
  -OEChem-10192103332D

 33 33  0     0  0  0  0  0  0999 V2000
    5.1350   -0.3450    0.0000 O   0  0  0  0  0  0  0  0  0  0  0  0
    6.8671    2.6550    0.0000 O   0  0  0  0  0  0  0  0  0  0  0  0
    2.5369   -1.8450    0.0000 O   0  0  0  0  0  0  0  0  0  0  0  0
    3.4030   -0.3450    0.0000 O   0  0  0  0  0  0  0  0  0  0  0  0
    4.2690   -4.8450    0.0000 O   0  0  0  0  0  0  0  0  0  0  0  0
    6.0010    4.1550    0.0000 O   0  0  0  0  0  0  0  0  0  0  0  0
    6.0010    1.1550    0.0000 C   0  0  0  0  0  0  0  0  0  0  0  0
    5.1350    0.6550    0.0000 C   0  0  0  0  0  0  0  0  0  0  0  0
    6.0010    2.1550    0.0000 C   0  0  0  0  0  0  0  0  0  0  0  0
    4.2690   -1.8450    0.0000 C   0  0  0  0  0  0  0  0  0  0  0  0
    4.2690   -0.8450    0.0000 C   0  0  0  0  0  0  0  0  0  0  0  0
    3.4030   -2.3450    0.0000 C   0  0  0  0  0  0  0  0  0  0  0  0
    5.1350   -2.3450    0.0000 C   0  0  0  0  0  0  0  0  0  0  0  0
    3.4030   -3.3450    0.0000 C   0  0  0  0  0  0  0  0  0  0  0  0
    5.1350   -3.3450    0.0000 C   0  0  0  0  0  0  0  0  0  0  0  0
    4.2690   -3.8450    0.0000 C   0  0  0  0  0  0  0  0  0  0  0  0
    6.8671    3.6550    0.0000 C   0  0  0  0  0  0  0  0  0  0  0  0
    7.7331    4.1550    0.0000 C   0  0  0  0  0  0  0  0  0  0  0  0
    7.7331    5.1550    0.0000 C   0  0  0  0  0  0  0  0  0  0  0  0
    6.2131    0.5724    0.0000 H   0  0  0  0  0  0  0  0  0  0  0  0
    6.6116    1.2627    0.0000 H   0  0  0  0  0  0  0  0  0  0  0  0
    4.9230    1.2376    0.0000 H   0  0  0  0  0  0  0  0  0  0  0  0
    4.5244    0.5473    0.0000 H   0  0  0  0  0  0  0  0  0  0  0  0
    5.7890    2.7376    0.0000 H   0  0  0  0  0  0  0  0  0  0  0  0
    5.3905    2.0473    0.0000 H   0  0  0  0  0  0  0  0  0  0  0  0
    5.6720   -2.0350    0.0000 H   0  0  0  0  0  0  0  0  0  0  0  0
    2.8660   -3.6550    0.0000 H   0  0  0  0  0  0  0  0  0  0  0  0
    5.6720   -3.6550    0.0000 H   0  0  0  0  0  0  0  0  0  0  0  0
    2.0000   -2.1550    0.0000 H   0  0  0  0  0  0  0  0  0  0  0  0
    4.8059   -5.1550    0.0000 H   0  0  0  0  0  0  0  0  0  0  0  0
    8.2700    3.8450    0.0000 H   0  0  0  0  0  0  0  0  0  0  0  0
    8.2700    5.4650    0.0000 H   0  0  0  0  0  0  0  0  0  0  0  0
    7.1962    5.4650    0.0000 H   0  0  0  0  0  0  0  0  0  0  0  0
  1  8  1  0  0  0  0
  1 11  1  0  0  0  0
  2  9  1  0  0  0  0
  2 17  1  0  0  0  0
  3 12  1  0  0  0  0
  3 29  1  0  0  0  0
  4 11  2  0  0  0  0
  5 16  1  0  0  0  0
  5 30  1  0  0  0  0
  6 17  2  0  0  0  0
  7  8  1  0  0  0  0
  7  9  1  0  0  0  0
  7 20  1  0  0  0  0
  7 21  1  0  0  0  0
  8 22  1  0  0  0  0
  8 23  1  0  0  0  0
  9 24  1  0  0  0  0
  9 25  1  0  0  0  0
 10 11  1  0  0  0  0
 10 12  2  0  0  0  0
 10 13  1  0  0  0  0
 12 14  1  0  0  0  0
 13 15  2  0  0  0  0
 13 26  1  0  0  0  0
 14 16  2  0  0  0  0
 14 27  1  0  0  0  0
 15 16  1  0  0  0  0
 15 28  1  0  0  0  0
 17 18  1  0  0  0  0
 18 19  2  0  0  0  0
 18 31  1  0  0  0  0
 19 32  1  0  0  0  0
 19 33  1  0  0  0  0
M  END
> <PUBCHEM_COMPOUND_CID>
59816798

> <PUBCHEM_COMPOUND_CANONICALIZED>
1

> <PUBCHEM_CACTVS_COMPLEXITY>
327

> <PUBCHEM_CACTVS_HBOND_ACCEPTOR>
6

> <PUBCHEM_CACTVS_HBOND_DONOR>
2

> <PUBCHEM_CACTVS_ROTATABLE_BOND>
8

> <PUBCHEM_CACTVS_SUBSKEYS>
AAADccBwOAAAAAAAAAAAAAAAAAAAAAAAAAAwAAAAAAAAAAABAAAAGgAACAAADASgmAIwDoAABgCIAiDSCAACAAAkIAAIiAEGCMgIJzaCNRqCcUAl4BUIuYeI7CzOIAAACAAIAABAAAAQABAAAAAAAAAAAA==

> <PUBCHEM_IUPAC_OPENEYE_NAME>
3-prop-2-enoyloxypropyl 2,4-dihydroxybenzoate

> <PUBCHEM_IUPAC_CAS_NAME>
2,4-dihydroxybenzoic acid 3-(1-oxoprop-2-enoxy)propyl ester

> <PUBCHEM_IUPAC_NAME_MARKUP>
3-prop-2-enoyloxypropyl 2,4-dihydroxybenzoate

> <PUBCHEM_IUPAC_NAME>
3-prop-2-enoyloxypropyl 2,4-dihydroxybenzoate

> <PUBCHEM_IUPAC_SYSTEMATIC_NAME>
3-prop-2-enoyloxypropyl 2,4-bis(oxidanyl)benzoate

> <PUBCHEM_IUPAC_TRADITIONAL_NAME>
2,4-dihydroxybenzoic acid 3-acryloyloxypropyl ester

> <PUBCHEM_IUPAC_INCHI>
InChI=1S/C13H14O6/c1-2-12(16)18-6-3-7-19-13(17)10-5-4-9(14)8-11(10)15/h2,4-5,8,14-15H,1,3,6-7H2

> <PUBCHEM_IUPAC_INCHIKEY>
PKUQZQBUZLXLAC-UHFFFAOYSA-N

> <PUBCHEM_XLOGP3>
2.8

> <PUBCHEM_EXACT_MASS>
266.07903816

> <PUBCHEM_MOLECULAR_FORMULA>
C13H14O6

> <PUBCHEM_MOLECULAR_WEIGHT>
266.25

> <PUBCHEM_OPENEYE_CAN_SMILES>
C=CC(=O)OCCCOC(=O)C1=C(C=C(C=C1)O)O

> <PUBCHEM_OPENEYE_ISO_SMILES>
C=CC(=O)OCCCOC(=O)C1=C(C=C(C=C1)O)O

> <PUBCHEM_CACTVS_TPSA>
93.1

> <PUBCHEM_MONOISOTOPIC_WEIGHT>
266.07903816

> <PUBCHEM_TOTAL_CHARGE>
0

> <PUBCHEM_HEAVY_ATOM_COUNT>
19

> <PUBCHEM_ATOM_DEF_STEREO_COUNT>
0

> <PUBCHEM_ATOM_UDEF_STEREO_COUNT>
0

> <PUBCHEM_BOND_DEF_STEREO_COUNT>
0

> <PUBCHEM_BOND_UDEF_STEREO_COUNT>
0

> <PUBCHEM_ISOTOPIC_ATOM_COUNT>
0

> <PUBCHEM_COMPONENT_COUNT>
1

> <PUBCHEM_CACTVS_TAUTO_COUNT>
-1

> <PUBCHEM_COORDINATE_TYPE>
1
5
255

> <PUBCHEM_BONDANNOTATIONS>
10  12  8
10  13  8
12  14  8
13  15  8
14  16  8
15  16  8

$$$$
