 
  -OEChem-10192104232D

 68 70  0     1  0  0  0  0  0999 V2000
    8.5305    0.8506    0.0000 S   0  0  0  0  0  0  0  0  0  0  0  0
    3.7213    0.2165    0.0000 O   0  0  0  0  0  0  0  0  0  0  0  0
    4.5181   -1.8214    0.0000 O   0  0  0  0  0  0  0  0  0  0  0  0
    6.2123   -2.1815    0.0000 O   0  0  0  0  0  0  0  0  0  0  0  0
    8.0305    1.7167    0.0000 O   0  0  0  0  0  0  0  0  0  0  0  0
    9.0305   -0.0154    0.0000 O   0  0  0  0  0  0  0  0  0  0  0  0
   13.7267    2.8506    0.0000 O   0  0  0  0  0  0  0  0  0  0  0  0
    5.8849    0.4439    0.0000 N   0  0  0  0  0  0  0  0  0  0  0  0
    7.6645    0.3506    0.0000 N   0  0  0  0  0  0  0  0  0  0  0  0
    5.7158    2.0531    0.0000 N   0  0  0  0  0  0  0  0  0  0  0  0
    6.6940    1.8452    0.0000 N   0  0  0  0  0  0  0  0  0  0  0  0
   11.9946    0.8506    0.0000 N   0  0  0  0  0  0  0  0  0  0  0  0
   11.9946    2.8506    0.0000 N   0  0  0  0  0  0  0  0  0  0  0  0
    4.2213    1.0825    0.0000 C   0  0  1  0  0  0  0  0  0  0  0  0
    3.5522    1.8257    0.0000 C   0  0  0  0  0  0  0  0  0  0  0  0
    2.6386    1.4189    0.0000 C   0  0  0  0  0  0  0  0  0  0  0  0
    2.7431    0.4244    0.0000 C   0  0  2  0  0  0  0  0  0  0  0  0
    5.2158    1.1870    0.0000 C   0  0  0  0  0  0  0  0  0  0  0  0
    5.6770   -0.5342    0.0000 C   0  0  0  0  0  0  0  0  0  0  0  0
    9.3966    1.3506    0.0000 C   0  0  2  0  0  0  0  0  0  0  0  0
    6.7985    0.8506    0.0000 C   0  0  0  0  0  0  0  0  0  0  0  0
   10.2626    0.8506    0.0000 C   0  0  2  0  0  0  0  0  0  0  0  0
    2.0000   -0.2447    0.0000 C   0  0  0  0  0  0  0  0  0  0  0  0
    4.7260   -0.8433    0.0000 C   0  0  0  0  0  0  0  0  0  0  0  0
    6.4202   -1.2034    0.0000 C   0  0  0  0  0  0  0  0  0  0  0  0
    9.3966    2.3506    0.0000 C   0  0  0  0  0  0  0  0  0  0  0  0
   10.2626   -0.1494    0.0000 C   0  0  0  0  0  0  0  0  0  0  0  0
   11.1286    1.3506    0.0000 C   0  0  0  0  0  0  0  0  0  0  0  0
   11.1286    2.3506    0.0000 C   0  0  0  0  0  0  0  0  0  0  0  0
    3.5670   -2.1304    0.0000 C   0  0  0  0  0  0  0  0  0  0  0  0
    6.9554   -2.8506    0.0000 C   0  0  0  0  0  0  0  0  0  0  0  0
   12.8607    1.3506    0.0000 C   0  0  0  0  0  0  0  0  0  0  0  0
   12.8607    2.3506    0.0000 C   0  0  0  0  0  0  0  0  0  0  0  0
   14.5927    2.3506    0.0000 C   0  0  0  0  0  0  0  0  0  0  0  0
    4.6842    0.3697    0.0000 H   0  0  0  0  0  0  0  0  0  0  0  0
    4.0538    2.1901    0.0000 H   0  0  0  0  0  0  0  0  0  0  0  0
    3.2422    2.3626    0.0000 H   0  0  0  0  0  0  0  0  0  0  0  0
    2.4470    2.0086    0.0000 H   0  0  0  0  0  0  0  0  0  0  0  0
    2.0322    1.2900    0.0000 H   0  0  0  0  0  0  0  0  0  0  0  0
    2.9036   -0.1745    0.0000 H   0  0  0  0  0  0  0  0  0  0  0  0
    6.2667   -0.3426    0.0000 H   0  0  0  0  0  0  0  0  0  0  0  0
    8.8596    1.6606    0.0000 H   0  0  0  0  0  0  0  0  0  0  0  0
   10.7995    0.5406    0.0000 H   0  0  0  0  0  0  0  0  0  0  0  0
    1.5851    0.2160    0.0000 H   0  0  0  0  0  0  0  0  0  0  0  0
    1.5392   -0.6596    0.0000 H   0  0  0  0  0  0  0  0  0  0  0  0
    2.4149   -0.7055    0.0000 H   0  0  0  0  0  0  0  0  0  0  0  0
    7.6645   -0.2694    0.0000 H   0  0  0  0  0  0  0  0  0  0  0  0
    4.6397   -0.2293    0.0000 H   0  0  0  0  0  0  0  0  0  0  0  0
    4.1064   -0.8216    0.0000 H   0  0  0  0  0  0  0  0  0  0  0  0
    6.9950   -1.4356    0.0000 H   0  0  0  0  0  0  0  0  0  0  0  0
    6.7487   -0.6776    0.0000 H   0  0  0  0  0  0  0  0  0  0  0  0
   10.0166    2.3506    0.0000 H   0  0  0  0  0  0  0  0  0  0  0  0
    9.3966    2.9706    0.0000 H   0  0  0  0  0  0  0  0  0  0  0  0
    8.7766    2.3506    0.0000 H   0  0  0  0  0  0  0  0  0  0  0  0
    9.6426   -0.1494    0.0000 H   0  0  0  0  0  0  0  0  0  0  0  0
   10.2626   -0.7694    0.0000 H   0  0  0  0  0  0  0  0  0  0  0  0
   10.8826   -0.1494    0.0000 H   0  0  0  0  0  0  0  0  0  0  0  0
   10.5917    2.6606    0.0000 H   0  0  0  0  0  0  0  0  0  0  0  0
    3.3754   -1.5408    0.0000 H   0  0  0  0  0  0  0  0  0  0  0  0
    2.9774   -2.3220    0.0000 H   0  0  0  0  0  0  0  0  0  0  0  0
    3.7586   -2.7201    0.0000 H   0  0  0  0  0  0  0  0  0  0  0  0
    6.5406   -3.3114    0.0000 H   0  0  0  0  0  0  0  0  0  0  0  0
    7.4162   -3.2655    0.0000 H   0  0  0  0  0  0  0  0  0  0  0  0
    7.3703   -2.3899    0.0000 H   0  0  0  0  0  0  0  0  0  0  0  0
   13.3976    1.0406    0.0000 H   0  0  0  0  0  0  0  0  0  0  0  0
   14.2827    1.8137    0.0000 H   0  0  0  0  0  0  0  0  0  0  0  0
   15.1297    2.0406    0.0000 H   0  0  0  0  0  0  0  0  0  0  0  0
   14.9027    2.8876    0.0000 H   0  0  0  0  0  0  0  0  0  0  0  0
  1  5  2  0  0  0  0
  1  6  2  0  0  0  0
  1  9  1  0  0  0  0
  1 20  1  0  0  0  0
  2 14  1  0  0  0  0
  2 17  1  0  0  0  0
  3 24  1  0  0  0  0
  3 30  1  0  0  0  0
  4 25  1  0  0  0  0
  4 31  1  0  0  0  0
  7 33  1  0  0  0  0
  7 34  1  0  0  0  0
  8 18  1  0  0  0  0
  8 19  1  0  0  0  0
  8 21  1  0  0  0  0
  9 21  1  0  0  0  0
  9 47  1  0  0  0  0
 10 11  1  0  0  0  0
 10 18  2  0  0  0  0
 11 21  2  0  0  0  0
 12 28  1  0  0  0  0
 12 32  2  0  0  0  0
 13 29  1  0  0  0  0
 13 33  2  0  0  0  0
 14 15  1  0  0  0  0
 14 18  1  0  0  0  0
 14 35  1  6  0  0  0
 15 16  1  0  0  0  0
 15 36  1  0  0  0  0
 15 37  1  0  0  0  0
 16 17  1  0  0  0  0
 16 38  1  0  0  0  0
 16 39  1  0  0  0  0
 17 23  1  1  0  0  0
 17 40  1  0  0  0  0
 19 24  1  0  0  0  0
 19 25  1  0  0  0  0
 19 41  1  0  0  0  0
 20 22  1  0  0  0  0
 20 26  1  1  0  0  0
 20 42  1  0  0  0  0
 22 27  1  1  0  0  0
 22 28  1  0  0  0  0
 22 43  1  0  0  0  0
 23 44  1  0  0  0  0
 23 45  1  0  0  0  0
 23 46  1  0  0  0  0
 24 48  1  0  0  0  0
 24 49  1  0  0  0  0
 25 50  1  0  0  0  0
 25 51  1  0  0  0  0
 26 52  1  0  0  0  0
 26 53  1  0  0  0  0
 26 54  1  0  0  0  0
 27 55  1  0  0  0  0
 27 56  1  0  0  0  0
 27 57  1  0  0  0  0
 28 29  2  0  0  0  0
 29 58  1  0  0  0  0
 30 59  1  0  0  0  0
 30 60  1  0  0  0  0
 30 61  1  0  0  0  0
 31 62  1  0  0  0  0
 31 63  1  0  0  0  0
 31 64  1  0  0  0  0
 32 33  1  0  0  0  0
 32 65  1  0  0  0  0
 34 66  1  0  0  0  0
 34 67  1  0  0  0  0
 34 68  1  0  0  0  0
M  END
> <PUBCHEM_COMPOUND_CID>
132086400

> <PUBCHEM_COMPOUND_CANONICALIZED>
1

> <PUBCHEM_CACTVS_COMPLEXITY>
721

> <PUBCHEM_CACTVS_HBOND_ACCEPTOR>
11

> <PUBCHEM_CACTVS_HBOND_DONOR>
1

> <PUBCHEM_CACTVS_ROTATABLE_BOND>
12

> <PUBCHEM_CACTVS_SUBSKEYS>
AAADcfB7uABAAAAAAAAAAAAAAAAAAWJAAAAsAAAAAAAAAAAB4AAAHgQYQAAADTzl1wavlBdMFAKiARZnZHRQiC8xUqAVUAA7cAiGaEJAmQCXAAAViALQQAGQEAIKAAAAAAAAAAAAAAAAAAAAAAAAAAAAAA==

> <PUBCHEM_IUPAC_OPENEYE_NAME>
(2S,3R)-N-[4-[2-methoxy-1-(methoxymethyl)ethyl]-5-[(2S,5S)-5-methyltetrahydrofuran-2-yl]-1,2,4-triazol-3-yl]-3-(5-methoxypyrazin-2-yl)butane-2-sulfonamide

> <PUBCHEM_IUPAC_CAS_NAME>
(2S,3R)-N-[4-(1,3-dimethoxypropan-2-yl)-5-[(2S,5S)-5-methyl-2-oxolanyl]-1,2,4-triazol-3-yl]-3-(5-methoxy-2-pyrazinyl)-2-butanesulfonamide

> <PUBCHEM_IUPAC_NAME_MARKUP>
(2<I>S</I>,3<I>R</I>)-<I>N</I>-[4-(1,3-dimethoxypropan-2-yl)-5-[(2<I>S</I>,5<I>S</I>)-5-methyloxolan-2-yl]-1,2,4-triazol-3-yl]-3-(5-methoxypyrazin-2-yl)butane-2-sulfonamide

> <PUBCHEM_IUPAC_NAME>
(2S,3R)-N-[4-(1,3-dimethoxypropan-2-yl)-5-[(2S,5S)-5-methyloxolan-2-yl]-1,2,4-triazol-3-yl]-3-(5-methoxypyrazin-2-yl)butane-2-sulfonamide

> <PUBCHEM_IUPAC_SYSTEMATIC_NAME>
(2S,3R)-N-[4-(1,3-dimethoxypropan-2-yl)-5-[(2S,5S)-5-methyloxolan-2-yl]-1,2,4-triazol-3-yl]-3-(5-methoxypyrazin-2-yl)butane-2-sulfonamide

> <PUBCHEM_IUPAC_TRADITIONAL_NAME>
(2S,3R)-N-[4-[2-methoxy-1-(methoxymethyl)ethyl]-5-[(2S,5S)-5-methyltetrahydrofuran-2-yl]-1,2,4-triazol-3-yl]-3-(5-methoxypyrazin-2-yl)butane-2-sulfonamide

> <PUBCHEM_IUPAC_INCHI>
InChI=1S/C21H34N6O6S/c1-13-7-8-18(33-13)20-24-25-21(27(20)16(11-30-4)12-31-5)26-34(28,29)15(3)14(2)17-9-23-19(32-6)10-22-17/h9-10,13-16,18H,7-8,11-12H2,1-6H3,(H,25,26)/t13-,14-,15-,18-/m0/s1

> <PUBCHEM_IUPAC_INCHIKEY>
OKZVPYQUYFGWNZ-XSWJXKHESA-N

> <PUBCHEM_XLOGP3_AA>
0

> <PUBCHEM_EXACT_MASS>
498.22605400

> <PUBCHEM_MOLECULAR_FORMULA>
C21H34N6O6S

> <PUBCHEM_MOLECULAR_WEIGHT>
498.6

> <PUBCHEM_OPENEYE_CAN_SMILES>
CC1CCC(O1)C2=NN=C(N2C(COC)COC)NS(=O)(=O)C(C)C(C)C3=CN=C(C=N3)OC

> <PUBCHEM_OPENEYE_ISO_SMILES>
C[C@H]1CC[C@H](O1)C2=NN=C(N2C(COC)COC)NS(=O)(=O)[C@@H](C)[C@H](C)C3=CN=C(C=N3)OC

> <PUBCHEM_CACTVS_TPSA>
148

> <PUBCHEM_MONOISOTOPIC_WEIGHT>
498.22605400

> <PUBCHEM_TOTAL_CHARGE>
0

> <PUBCHEM_HEAVY_ATOM_COUNT>
34

> <PUBCHEM_ATOM_DEF_STEREO_COUNT>
4

> <PUBCHEM_ATOM_UDEF_STEREO_COUNT>
0

> <PUBCHEM_BOND_DEF_STEREO_COUNT>
0

> <PUBCHEM_BOND_UDEF_STEREO_COUNT>
0

> <PUBCHEM_ISOTOPIC_ATOM_COUNT>
0

> <PUBCHEM_COMPONENT_COUNT>
1

> <PUBCHEM_CACTVS_TAUTO_COUNT>
-1

> <PUBCHEM_COORDINATE_TYPE>
1
5
255

> <PUBCHEM_BONDANNOTATIONS>
10  11  8
10  18  8
11  21  8
12  28  8
12  32  8
13  29  8
13  33  8
14  35  6
17  23  5
20  26  5
22  27  5
28  29  8
32  33  8
8  18  8
8  21  8

$$$$
