 
  -OEChem-10192103432D

 58 57  0     1  0  0  0  0  0999 V2000
    4.5981    0.8660    0.0000 P   0  0  0  0  0  0  0  0  0  0  0  0
    2.8660   -0.1340    0.0000 P   0  0  0  0  0  0  0  0  0  0  0  0
    5.0982   -2.0000    0.0000 P   0  0  0  0  0  0  0  0  0  0  0  0
    5.4641    1.3660    0.0000 O   0  0  0  0  0  0  0  0  0  0  0  0
    5.0981   -0.0000    0.0000 O   0  0  0  0  0  0  0  0  0  0  0  0
    2.0000   -0.6340    0.0000 O   0  0  0  0  0  0  0  0  0  0  0  0
    3.3660   -1.0000    0.0000 O   0  0  0  0  0  0  0  0  0  0  0  0
    4.5981    1.8660    0.0000 O   0  0  0  0  0  0  0  0  0  0  0  0
    2.0000    0.3660    0.0000 O   0  0  0  0  0  0  0  0  0  0  0  0
    5.9641   -2.5000    0.0000 O   0  0  0  0  0  0  0  0  0  0  0  0
    4.5981   -2.8660    0.0000 O   0  0  0  0  0  0  0  0  0  0  0  0
    5.5981   -1.1340    0.0000 O   0  0  0  0  0  0  0  0  0  0  0  0
    3.2320    1.2320    0.0000 N   0  0  0  0  0  0  0  0  0  0  0  0
    3.7320    0.3660    0.0000 C   0  0  0  0  0  0  0  0  0  0  0  0
    4.2320   -0.5000    0.0000 C   0  0  0  0  0  0  0  0  0  0  0  0
    3.2320    2.2320    0.0000 C   0  0  3  0  0  0  0  0  0  0  0  0
    4.2321   -1.5000    0.0000 C   0  0  0  0  0  0  0  0  0  0  0  0
    2.3660    2.7320    0.0000 C   0  0  0  0  0  0  0  0  0  0  0  0
    4.0981    2.7320    0.0000 C   0  0  0  0  0  0  0  0  0  0  0  0
    2.3660    3.7320    0.0000 C   0  0  0  0  0  0  0  0  0  0  0  0
    5.4641    2.3660    0.0000 C   0  0  0  0  0  0  0  0  0  0  0  0
    6.0981   -0.0000    0.0000 C   0  0  0  0  0  0  0  0  0  0  0  0
    2.0000   -1.6340    0.0000 C   0  0  0  0  0  0  0  0  0  0  0  0
    2.8660   -1.8660    0.0000 C   0  0  0  0  0  0  0  0  0  0  0  0
    5.9642   -3.5000    0.0000 C   0  0  0  0  0  0  0  0  0  0  0  0
    5.0981   -3.7320    0.0000 C   0  0  0  0  0  0  0  0  0  0  0  0
    4.8147   -0.7120    0.0000 H   0  0  0  0  0  0  0  0  0  0  0  0
    3.6332   -0.6605    0.0000 H   0  0  0  0  0  0  0  0  0  0  0  0
    2.6120    1.2320    0.0000 H   0  0  0  0  0  0  0  0  0  0  0  0
    3.7690    1.9220    0.0000 H   0  0  0  0  0  0  0  0  0  0  0  0
    3.6215   -1.3924    0.0000 H   0  0  0  0  0  0  0  0  0  0  0  0
    4.0201   -2.0826    0.0000 H   0  0  0  0  0  0  0  0  0  0  0  0
    1.7554    2.8397    0.0000 H   0  0  0  0  0  0  0  0  0  0  0  0
    2.1540    2.1494    0.0000 H   0  0  0  0  0  0  0  0  0  0  0  0
    4.4081    2.1951    0.0000 H   0  0  0  0  0  0  0  0  0  0  0  0
    4.6350    3.0420    0.0000 H   0  0  0  0  0  0  0  0  0  0  0  0
    3.7881    3.2690    0.0000 H   0  0  0  0  0  0  0  0  0  0  0  0
    2.9860    3.7320    0.0000 H   0  0  0  0  0  0  0  0  0  0  0  0
    2.3660    4.3520    0.0000 H   0  0  0  0  0  0  0  0  0  0  0  0
    1.7460    3.7320    0.0000 H   0  0  0  0  0  0  0  0  0  0  0  0
    6.0841    2.3660    0.0000 H   0  0  0  0  0  0  0  0  0  0  0  0
    5.4641    2.9860    0.0000 H   0  0  0  0  0  0  0  0  0  0  0  0
    4.8441    2.3660    0.0000 H   0  0  0  0  0  0  0  0  0  0  0  0
    6.0981   -0.6200    0.0000 H   0  0  0  0  0  0  0  0  0  0  0  0
    6.7181   -0.0000    0.0000 H   0  0  0  0  0  0  0  0  0  0  0  0
    6.0981    0.6200    0.0000 H   0  0  0  0  0  0  0  0  0  0  0  0
    1.3800   -1.6340    0.0000 H   0  0  0  0  0  0  0  0  0  0  0  0
    2.0000   -2.2540    0.0000 H   0  0  0  0  0  0  0  0  0  0  0  0
    2.6200   -1.6340    0.0000 H   0  0  0  0  0  0  0  0  0  0  0  0
    2.3291   -1.5560    0.0000 H   0  0  0  0  0  0  0  0  0  0  0  0
    2.5560   -2.4030    0.0000 H   0  0  0  0  0  0  0  0  0  0  0  0
    3.4030   -2.1760    0.0000 H   0  0  0  0  0  0  0  0  0  0  0  0
    5.3442   -3.5000    0.0000 H   0  0  0  0  0  0  0  0  0  0  0  0
    5.9642   -4.1200    0.0000 H   0  0  0  0  0  0  0  0  0  0  0  0
    6.5842   -3.4999    0.0000 H   0  0  0  0  0  0  0  0  0  0  0  0
    4.5612   -4.0420    0.0000 H   0  0  0  0  0  0  0  0  0  0  0  0
    5.4082   -4.2690    0.0000 H   0  0  0  0  0  0  0  0  0  0  0  0
    5.6351   -3.4220    0.0000 H   0  0  0  0  0  0  0  0  0  0  0  0
  1  4  1  0  0  0  0
  1  5  1  0  0  0  0
  1  8  2  0  0  0  0
  1 14  1  0  0  0  0
  2  6  1  0  0  0  0
  2  7  1  0  0  0  0
  2  9  2  0  0  0  0
  2 14  1  0  0  0  0
  3 10  1  0  0  0  0
  3 11  1  0  0  0  0
  3 12  2  0  0  0  0
  3 17  1  0  0  0  0
  4 21  1  0  0  0  0
  5 22  1  0  0  0  0
  6 23  1  0  0  0  0
  7 24  1  0  0  0  0
 10 25  1  0  0  0  0
 11 26  1  0  0  0  0
 13 14  1  0  0  0  0
 13 16  1  0  0  0  0
 13 29  1  0  0  0  0
 14 15  1  0  0  0  0
 15 17  1  0  0  0  0
 15 27  1  0  0  0  0
 15 28  1  0  0  0  0
 16 18  1  0  0  0  0
 16 19  1  0  0  0  0
 16 30  1  0  0  0  0
 17 31  1  0  0  0  0
 17 32  1  0  0  0  0
 18 20  1  0  0  0  0
 18 33  1  0  0  0  0
 18 34  1  0  0  0  0
 19 35  1  0  0  0  0
 19 36  1  0  0  0  0
 19 37  1  0  0  0  0
 20 38  1  0  0  0  0
 20 39  1  0  0  0  0
 20 40  1  0  0  0  0
 21 41  1  0  0  0  0
 21 42  1  0  0  0  0
 21 43  1  0  0  0  0
 22 44  1  0  0  0  0
 22 45  1  0  0  0  0
 22 46  1  0  0  0  0
 23 47  1  0  0  0  0
 23 48  1  0  0  0  0
 23 49  1  0  0  0  0
 24 50  1  0  0  0  0
 24 51  1  0  0  0  0
 24 52  1  0  0  0  0
 25 53  1  0  0  0  0
 25 54  1  0  0  0  0
 25 55  1  0  0  0  0
 26 56  1  0  0  0  0
 26 57  1  0  0  0  0
 26 58  1  0  0  0  0
M  END
> <PUBCHEM_COMPOUND_CID>
23727484

> <PUBCHEM_COMPOUND_CANONICALIZED>
1

> <PUBCHEM_CACTVS_COMPLEXITY>
521

> <PUBCHEM_CACTVS_HBOND_ACCEPTOR>
10

> <PUBCHEM_CACTVS_HBOND_DONOR>
1

> <PUBCHEM_CACTVS_ROTATABLE_BOND>
14

> <PUBCHEM_CACTVS_SUBSKEYS>
AAADcfByPAMAAAAAAAAAAAAAAAAAAAAAAAAAAAAAAAAAAAAAAAAAHggQACAACCjJAAYCAALAARAAQAAAAIAAAAAAAAAAAIAIAAAAAAAAAAAEAAAAEACAAAAAAAAAAAAAAAAAAAAAAAAAAAAAAAAAAAAAAA==

> <PUBCHEM_IUPAC_OPENEYE_NAME>
N-[1,1,3-tris(dimethoxyphosphoryl)propyl]butan-2-amine

> <PUBCHEM_IUPAC_CAS_NAME>
N-[1,1,3-tris(dimethoxyphosphoryl)propyl]-2-butanamine

> <PUBCHEM_IUPAC_NAME_MARKUP>
<I>N</I>-[1,1,3-tris(dimethoxyphosphoryl)propyl]butan-2-amine

> <PUBCHEM_IUPAC_NAME>
N-[1,1,3-tris(dimethoxyphosphoryl)propyl]butan-2-amine

> <PUBCHEM_IUPAC_SYSTEMATIC_NAME>
N-[1,1,3-tris(dimethoxyphosphoryl)propyl]butan-2-amine

> <PUBCHEM_IUPAC_TRADITIONAL_NAME>
sec-butyl-[1,1,3-tris(dimethoxyphosphoryl)propyl]amine

> <PUBCHEM_IUPAC_INCHI>
InChI=1S/C13H32NO9P3/c1-9-12(2)14-13(25(16,20-5)21-6,26(17,22-7)23-8)10-11-24(15,18-3)19-4/h12,14H,9-11H2,1-8H3

> <PUBCHEM_IUPAC_INCHIKEY>
YNYQZFKRLKRGTR-UHFFFAOYSA-N

> <PUBCHEM_XLOGP3_AA>
-0.7

> <PUBCHEM_EXACT_MASS>
439.12899259

> <PUBCHEM_MOLECULAR_FORMULA>
C13H32NO9P3

> <PUBCHEM_MOLECULAR_WEIGHT>
439.32

> <PUBCHEM_OPENEYE_CAN_SMILES>
CCC(C)NC(CCP(=O)(OC)OC)(P(=O)(OC)OC)P(=O)(OC)OC

> <PUBCHEM_OPENEYE_ISO_SMILES>
CCC(C)NC(CCP(=O)(OC)OC)(P(=O)(OC)OC)P(=O)(OC)OC

> <PUBCHEM_CACTVS_TPSA>
119

> <PUBCHEM_MONOISOTOPIC_WEIGHT>
439.12899259

> <PUBCHEM_TOTAL_CHARGE>
0

> <PUBCHEM_HEAVY_ATOM_COUNT>
26

> <PUBCHEM_ATOM_DEF_STEREO_COUNT>
0

> <PUBCHEM_ATOM_UDEF_STEREO_COUNT>
1

> <PUBCHEM_BOND_DEF_STEREO_COUNT>
0

> <PUBCHEM_BOND_UDEF_STEREO_COUNT>
0

> <PUBCHEM_ISOTOPIC_ATOM_COUNT>
0

> <PUBCHEM_COMPONENT_COUNT>
1

> <PUBCHEM_CACTVS_TAUTO_COUNT>
-1

> <PUBCHEM_COORDINATE_TYPE>
1
5
255

> <PUBCHEM_BONDANNOTATIONS>
16  19  3

$$$$
