 
  -OEChem-10192104062D

 62 64  0     1  0  0  0  0  0999 V2000
    8.0622   -4.0000    0.0000 O   0  0  0  0  0  0  0  0  0  0  0  0
    8.9282   -2.5000    0.0000 O   0  0  0  0  0  0  0  0  0  0  0  0
    6.3301   -2.0000    0.0000 O   0  0  0  0  0  0  0  0  0  0  0  0
    6.3301   -5.0000    0.0000 O   0  0  0  0  0  0  0  0  0  0  0  0
    9.7942   -5.0000    0.0000 O   0  0  0  0  0  0  0  0  0  0  0  0
    4.5981   -4.0000    0.0000 O   0  0  0  0  0  0  0  0  0  0  0  0
   11.5263   -4.0000    0.0000 O   0  0  0  0  0  0  0  0  0  0  0  0
   11.5263   -2.0000    0.0000 O   0  0  0  0  0  0  0  0  0  0  0  0
    8.0622   -2.0000    0.0000 O   0  0  0  0  0  0  0  0  0  0  0  0
    4.5981   -1.0000    0.0000 O   0  0  0  0  0  0  0  0  0  0  0  0
   10.6603   -0.5000    0.0000 O   0  0  0  0  0  0  0  0  0  0  0  0
    2.8660   -1.0000    0.0000 O   0  0  0  0  0  0  0  0  0  0  0  0
    2.8660    5.0000    0.0000 O   0  0  0  0  0  0  0  0  0  0  0  0
    7.1962   -3.5000    0.0000 C   0  0  3  0  0  0  0  0  0  0  0  0
    6.3301   -4.0000    0.0000 C   0  0  3  0  0  0  0  0  0  0  0  0
    8.9282   -3.5000    0.0000 C   0  0  3  0  0  0  0  0  0  0  0  0
    9.7942   -4.0000    0.0000 C   0  0  3  0  0  0  0  0  0  0  0  0
    5.4641   -3.5000    0.0000 C   0  0  3  0  0  0  0  0  0  0  0  0
   10.6603   -3.5000    0.0000 C   0  0  3  0  0  0  0  0  0  0  0  0
   10.6603   -2.5000    0.0000 C   0  0  3  0  0  0  0  0  0  0  0  0
    5.4641   -2.5000    0.0000 C   0  0  3  0  0  0  0  0  0  0  0  0
    9.7942   -2.0000    0.0000 C   0  0  3  0  0  0  0  0  0  0  0  0
    7.1962   -2.5000    0.0000 C   0  0  3  0  0  0  0  0  0  0  0  0
    4.5981   -2.0000    0.0000 C   0  0  0  0  0  0  0  0  0  0  0  0
    9.7942   -1.0000    0.0000 C   0  0  0  0  0  0  0  0  0  0  0  0
    3.7320   -0.5000    0.0000 C   0  0  0  0  0  0  0  0  0  0  0  0
    3.7320    0.5000    0.0000 C   0  0  0  0  0  0  0  0  0  0  0  0
    2.8660    1.0000    0.0000 C   0  0  0  0  0  0  0  0  0  0  0  0
    2.8660    2.0000    0.0000 C   0  0  0  0  0  0  0  0  0  0  0  0
    3.7320    2.5000    0.0000 C   0  0  0  0  0  0  0  0  0  0  0  0
    2.0000    2.5000    0.0000 C   0  0  0  0  0  0  0  0  0  0  0  0
    3.7320    3.5000    0.0000 C   0  0  0  0  0  0  0  0  0  0  0  0
    2.0000    3.5000    0.0000 C   0  0  0  0  0  0  0  0  0  0  0  0
    2.8660    4.0000    0.0000 C   0  0  0  0  0  0  0  0  0  0  0  0
    7.1962   -4.1200    0.0000 H   0  0  0  0  0  0  0  0  0  0  0  0
    5.7932   -4.3100    0.0000 H   0  0  0  0  0  0  0  0  0  0  0  0
    8.9282   -4.1200    0.0000 H   0  0  0  0  0  0  0  0  0  0  0  0
   10.3312   -4.3100    0.0000 H   0  0  0  0  0  0  0  0  0  0  0  0
    4.9272   -3.1900    0.0000 H   0  0  0  0  0  0  0  0  0  0  0  0
   10.6603   -4.1200    0.0000 H   0  0  0  0  0  0  0  0  0  0  0  0
   11.1972   -2.8100    0.0000 H   0  0  0  0  0  0  0  0  0  0  0  0
    5.4641   -1.8800    0.0000 H   0  0  0  0  0  0  0  0  0  0  0  0
    9.2573   -1.6900    0.0000 H   0  0  0  0  0  0  0  0  0  0  0  0
    7.7331   -2.8100    0.0000 H   0  0  0  0  0  0  0  0  0  0  0  0
    3.9875   -1.8923    0.0000 H   0  0  0  0  0  0  0  0  0  0  0  0
    4.3860   -2.5826    0.0000 H   0  0  0  0  0  0  0  0  0  0  0  0
    9.5822   -0.4174    0.0000 H   0  0  0  0  0  0  0  0  0  0  0  0
    9.1836   -1.1077    0.0000 H   0  0  0  0  0  0  0  0  0  0  0  0
    5.7932   -5.3100    0.0000 H   0  0  0  0  0  0  0  0  0  0  0  0
   10.3312   -5.3100    0.0000 H   0  0  0  0  0  0  0  0  0  0  0  0
    4.0611   -3.6900    0.0000 H   0  0  0  0  0  0  0  0  0  0  0  0
   12.0632   -3.6900    0.0000 H   0  0  0  0  0  0  0  0  0  0  0  0
   12.0632   -2.3100    0.0000 H   0  0  0  0  0  0  0  0  0  0  0  0
    8.0622   -1.3800    0.0000 H   0  0  0  0  0  0  0  0  0  0  0  0
   10.6603    0.1200    0.0000 H   0  0  0  0  0  0  0  0  0  0  0  0
    4.2690    0.8100    0.0000 H   0  0  0  0  0  0  0  0  0  0  0  0
    2.3291    0.6900    0.0000 H   0  0  0  0  0  0  0  0  0  0  0  0
    4.2690    2.1900    0.0000 H   0  0  0  0  0  0  0  0  0  0  0  0
    1.4631    2.1900    0.0000 H   0  0  0  0  0  0  0  0  0  0  0  0
    4.2690    3.8100    0.0000 H   0  0  0  0  0  0  0  0  0  0  0  0
    1.4631    3.8100    0.0000 H   0  0  0  0  0  0  0  0  0  0  0  0
    2.3291    5.3100    0.0000 H   0  0  0  0  0  0  0  0  0  0  0  0
  1 14  1  0  0  0  0
  1 16  1  0  0  0  0
  2 16  1  0  0  0  0
  2 22  1  0  0  0  0
  3 21  1  0  0  0  0
  3 23  1  0  0  0  0
  4 15  1  0  0  0  0
  4 49  1  0  0  0  0
  5 17  1  0  0  0  0
  5 50  1  0  0  0  0
  6 18  1  0  0  0  0
  6 51  1  0  0  0  0
  7 19  1  0  0  0  0
  7 52  1  0  0  0  0
  8 20  1  0  0  0  0
  8 53  1  0  0  0  0
  9 23  1  0  0  0  0
  9 54  1  0  0  0  0
 10 24  1  0  0  0  0
 10 26  1  0  0  0  0
 11 25  1  0  0  0  0
 11 55  1  0  0  0  0
 12 26  2  0  0  0  0
 13 34  1  0  0  0  0
 13 62  1  0  0  0  0
 14 15  1  0  0  0  0
 14 23  1  0  0  0  0
 14 35  1  0  0  0  0
 15 18  1  0  0  0  0
 15 36  1  0  0  0  0
 16 17  1  0  0  0  0
 16 37  1  0  0  0  0
 17 19  1  0  0  0  0
 17 38  1  0  0  0  0
 18 21  1  0  0  0  0
 18 39  1  0  0  0  0
 19 20  1  0  0  0  0
 19 40  1  0  0  0  0
 20 22  1  0  0  0  0
 20 41  1  0  0  0  0
 21 24  1  0  0  0  0
 21 42  1  0  0  0  0
 22 25  1  0  0  0  0
 22 43  1  0  0  0  0
 23 44  1  0  0  0  0
 24 45  1  0  0  0  0
 24 46  1  0  0  0  0
 25 47  1  0  0  0  0
 25 48  1  0  0  0  0
 26 27  1  0  0  0  0
 27 28  2  0  0  0  0
 27 56  1  0  0  0  0
 28 29  1  0  0  0  0
 28 57  1  0  0  0  0
 29 30  2  0  0  0  0
 29 31  1  0  0  0  0
 30 32  1  0  0  0  0
 30 58  1  0  0  0  0
 31 33  2  0  0  0  0
 31 59  1  0  0  0  0
 32 34  2  0  0  0  0
 32 60  1  0  0  0  0
 33 34  1  0  0  0  0
 33 61  1  0  0  0  0
M  END
> <PUBCHEM_COMPOUND_CID>
45359866

> <PUBCHEM_COMPOUND_CANONICALIZED>
1

> <PUBCHEM_CACTVS_COMPLEXITY>
682

> <PUBCHEM_CACTVS_HBOND_ACCEPTOR>
13

> <PUBCHEM_CACTVS_HBOND_DONOR>
8

> <PUBCHEM_CACTVS_ROTATABLE_BOND>
8

> <PUBCHEM_CACTVS_SUBSKEYS>
AAADceB4PAAAAAAAAAAAAAAAAAAAAAAAAAA0SIAAAAAAAAABAAAAGgAACAAADBSwmAMwDoAABgCIAiDSCAACAAAgIAAIiAAGCMgZNiKCMRKicAAlwBEPuYfA4AwOIAAAAAAAAABAAAAAAAAAAAAAAAAAAA==

> <PUBCHEM_IUPAC_OPENEYE_NAME>
[3,4,6-trihydroxy-5-[3,4,5-trihydroxy-6-(hydroxymethyl)tetrahydropyran-2-yl]oxy-tetrahydropyran-2-yl]methyl (E)-3-(4-hydroxyphenyl)prop-2-enoate

> <PUBCHEM_IUPAC_CAS_NAME>
(E)-3-(4-hydroxyphenyl)-2-propenoic acid [3,4,6-trihydroxy-5-[[3,4,5-trihydroxy-6-(hydroxymethyl)-2-oxanyl]oxy]-2-oxanyl]methyl ester

> <PUBCHEM_IUPAC_NAME_MARKUP>
[3,4,6-trihydroxy-5-[3,4,5-trihydroxy-6-(hydroxymethyl)oxan-2-yl]oxyoxan-2-yl]methyl (<I>E</I>)-3-(4-hydroxyphenyl)prop-2-enoate

> <PUBCHEM_IUPAC_NAME>
[3,4,6-trihydroxy-5-[3,4,5-trihydroxy-6-(hydroxymethyl)oxan-2-yl]oxyoxan-2-yl]methyl (E)-3-(4-hydroxyphenyl)prop-2-enoate

> <PUBCHEM_IUPAC_SYSTEMATIC_NAME>
[5-[6-(hydroxymethyl)-3,4,5-tris(oxidanyl)oxan-2-yl]oxy-3,4,6-tris(oxidanyl)oxan-2-yl]methyl (E)-3-(4-hydroxyphenyl)prop-2-enoate

> <PUBCHEM_IUPAC_TRADITIONAL_NAME>
(E)-3-(4-hydroxyphenyl)acrylic acid [3,4,6-trihydroxy-5-(3,4,5-trihydroxy-6-methylol-tetrahydropyran-2-yl)oxy-tetrahydropyran-2-yl]methyl ester

> <PUBCHEM_IUPAC_INCHI>
InChI=1S/C21H28O13/c22-7-11-14(25)16(27)18(29)21(33-11)34-19-17(28)15(26)12(32-20(19)30)8-31-13(24)6-3-9-1-4-10(23)5-2-9/h1-6,11-12,14-23,25-30H,7-8H2/b6-3+

> <PUBCHEM_IUPAC_INCHIKEY>
ZPHQZULZLQMWGY-ZZXKWVIFSA-N

> <PUBCHEM_XLOGP3_AA>
-2.4

> <PUBCHEM_EXACT_MASS>
488.15299094

> <PUBCHEM_MOLECULAR_FORMULA>
C21H28O13

> <PUBCHEM_MOLECULAR_WEIGHT>
488.4

> <PUBCHEM_OPENEYE_CAN_SMILES>
C1=CC(=CC=C1C=CC(=O)OCC2C(C(C(C(O2)O)OC3C(C(C(C(O3)CO)O)O)O)O)O)O

> <PUBCHEM_OPENEYE_ISO_SMILES>
C1=CC(=CC=C1/C=C/C(=O)OCC2C(C(C(C(O2)O)OC3C(C(C(C(O3)CO)O)O)O)O)O)O

> <PUBCHEM_CACTVS_TPSA>
216

> <PUBCHEM_MONOISOTOPIC_WEIGHT>
488.15299094

> <PUBCHEM_TOTAL_CHARGE>
0

> <PUBCHEM_HEAVY_ATOM_COUNT>
34

> <PUBCHEM_ATOM_DEF_STEREO_COUNT>
0

> <PUBCHEM_ATOM_UDEF_STEREO_COUNT>
10

> <PUBCHEM_BOND_DEF_STEREO_COUNT>
1

> <PUBCHEM_BOND_UDEF_STEREO_COUNT>
0

> <PUBCHEM_ISOTOPIC_ATOM_COUNT>
0

> <PUBCHEM_COMPONENT_COUNT>
1

> <PUBCHEM_CACTVS_TAUTO_COUNT>
-1

> <PUBCHEM_COORDINATE_TYPE>
1
5
255

> <PUBCHEM_BONDANNOTATIONS>
14  1  3
16  1  3
21  24  3
22  25  3
29  30  8
29  31  8
30  32  8
31  33  8
32  34  8
33  34  8
15  4  3
17  5  3
18  6  3
19  7  3
20  8  3
23  9  3

$$$$
