 
  -OEChem-10192104012D

 59 60  0     1  0  0  0  0  0999 V2000
    6.3745   -1.8677    0.0000 P   0  0  3  0  0  0  0  0  0  0  0  0
    4.5134    0.5969    0.0000 O   0  0  0  0  0  0  0  0  0  0  0  0
    2.6166   -1.1632    0.0000 O   0  0  0  0  0  0  0  0  0  0  0  0
    5.7867   -1.0587    0.0000 O   0  0  0  0  0  0  0  0  0  0  0  0
    6.9623   -2.6767    0.0000 O   0  0  0  0  0  0  0  0  0  0  0  0
    5.4364    2.1847    0.0000 O   0  0  0  0  0  0  0  0  0  0  0  0
    7.1835   -1.2799    0.0000 O   0  0  0  0  0  0  0  0  0  0  0  0
    5.5655   -2.4555    0.0000 O   0  0  0  0  0  0  0  0  0  0  0  0
   10.1269   -4.0857    0.0000 O   0  0  0  0  0  0  0  0  0  0  0  0
    8.1378   -4.2947    0.0000 O   0  0  0  0  0  0  0  0  0  0  0  0
   11.5281   -3.0676    0.0000 O   0  0  0  0  0  0  0  0  0  0  0  0
    3.7044    2.1847    0.0000 N   0  0  0  0  0  0  0  0  0  0  0  0
    4.5704    3.6847    0.0000 N   0  0  0  0  0  0  0  0  0  0  0  0
    3.7044    5.1847    0.0000 N   0  0  0  0  0  0  0  0  0  0  0  0
    3.2044   -0.3542    0.0000 C   0  0  2  0  0  0  0  0  0  0  0  0
    4.2044   -0.3542    0.0000 C   0  0  1  0  0  0  0  0  0  0  0  0
    2.8954    0.5969    0.0000 C   0  0  0  0  0  0  0  0  0  0  0  0
    3.7044    1.1847    0.0000 C   0  0  1  0  0  0  0  0  0  0  0  0
    4.7922   -1.1632    0.0000 C   0  0  0  0  0  0  0  0  0  0  0  0
    2.8384    2.6847    0.0000 C   0  0  0  0  0  0  0  0  0  0  0  0
    4.5704    2.6847    0.0000 C   0  0  0  0  0  0  0  0  0  0  0  0
    2.8384    3.6847    0.0000 C   0  0  0  0  0  0  0  0  0  0  0  0
    3.7044    4.1847    0.0000 C   0  0  0  0  0  0  0  0  0  0  0  0
    7.9568   -2.5722    0.0000 C   0  0  0  0  0  0  0  0  0  0  0  0
    8.5446   -3.3812    0.0000 C   0  0  1  0  0  0  0  0  0  0  0  0
    9.5391   -3.2767    0.0000 C   0  0  0  0  0  0  0  0  0  0  0  0
   12.7037   -4.6856    0.0000 C   0  0  0  0  0  0  0  0  0  0  0  0
   11.7092   -4.7902    0.0000 C   0  0  0  0  0  0  0  0  0  0  0  0
   13.2915   -5.4947    0.0000 C   0  0  0  0  0  0  0  0  0  0  0  0
   11.1214   -3.9812    0.0000 C   0  0  0  0  0  0  0  0  0  0  0  0
   14.2860   -5.3901    0.0000 C   0  0  0  0  0  0  0  0  0  0  0  0
    3.4859   -0.9066    0.0000 H   0  0  0  0  0  0  0  0  0  0  0  0
    4.8168   -0.2572    0.0000 H   0  0  0  0  0  0  0  0  0  0  0  0
    2.5854    1.1338    0.0000 H   0  0  0  0  0  0  0  0  0  0  0  0
    2.3290    0.3447    0.0000 H   0  0  0  0  0  0  0  0  0  0  0  0
    4.2568    1.4661    0.0000 H   0  0  0  0  0  0  0  0  0  0  0  0
    4.2349   -1.4350    0.0000 H   0  0  0  0  0  0  0  0  0  0  0  0
    4.9631   -1.7592    0.0000 H   0  0  0  0  0  0  0  0  0  0  0  0
    2.0000   -1.0984    0.0000 H   0  0  0  0  0  0  0  0  0  0  0  0
    2.3014    2.3747    0.0000 H   0  0  0  0  0  0  0  0  0  0  0  0
    2.3014    3.9947    0.0000 H   0  0  0  0  0  0  0  0  0  0  0  0
    8.5140   -2.3004    0.0000 H   0  0  0  0  0  0  0  0  0  0  0  0
    7.7859   -1.9762    0.0000 H   0  0  0  0  0  0  0  0  0  0  0  0
    7.9280   -3.4460    0.0000 H   0  0  0  0  0  0  0  0  0  0  0  0
    7.1187   -0.6633    0.0000 H   0  0  0  0  0  0  0  0  0  0  0  0
   10.0963   -3.0049    0.0000 H   0  0  0  0  0  0  0  0  0  0  0  0
    9.3682   -2.6807    0.0000 H   0  0  0  0  0  0  0  0  0  0  0  0
    3.1674    5.4947    0.0000 H   0  0  0  0  0  0  0  0  0  0  0  0
    4.2413    5.4947    0.0000 H   0  0  0  0  0  0  0  0  0  0  0  0
   13.2610   -4.4138    0.0000 H   0  0  0  0  0  0  0  0  0  0  0  0
   12.5328   -4.0897    0.0000 H   0  0  0  0  0  0  0  0  0  0  0  0
   11.1519   -5.0620    0.0000 H   0  0  0  0  0  0  0  0  0  0  0  0
   11.8801   -5.3862    0.0000 H   0  0  0  0  0  0  0  0  0  0  0  0
   12.7342   -5.7664    0.0000 H   0  0  0  0  0  0  0  0  0  0  0  0
   13.4624   -6.0906    0.0000 H   0  0  0  0  0  0  0  0  0  0  0  0
    8.5023   -4.7963    0.0000 H   0  0  0  0  0  0  0  0  0  0  0  0
   14.3508   -6.0067    0.0000 H   0  0  0  0  0  0  0  0  0  0  0  0
   14.9026   -5.3253    0.0000 H   0  0  0  0  0  0  0  0  0  0  0  0
   14.2212   -4.7735    0.0000 H   0  0  0  0  0  0  0  0  0  0  0  0
  1  4  1  0  0  0  0
  1  5  1  0  0  0  0
  1  7  1  0  0  0  0
  1  8  2  0  0  0  0
  2 16  1  0  0  0  0
  2 18  1  0  0  0  0
 15  3  1  1  0  0  0
  3 39  1  0  0  0  0
  4 19  1  0  0  0  0
  5 24  1  0  0  0  0
  6 21  2  0  0  0  0
  7 45  1  0  0  0  0
  9 26  1  0  0  0  0
  9 30  1  0  0  0  0
 25 10  1  1  0  0  0
 10 56  1  0  0  0  0
 11 30  2  0  0  0  0
 18 12  1  6  0  0  0
 12 20  1  0  0  0  0
 12 21  1  0  0  0  0
 13 21  1  0  0  0  0
 13 23  2  0  0  0  0
 14 23  1  0  0  0  0
 14 48  1  0  0  0  0
 14 49  1  0  0  0  0
 15 16  1  0  0  0  0
 15 17  1  0  0  0  0
 15 32  1  0  0  0  0
 16 19  1  6  0  0  0
 16 33  1  0  0  0  0
 17 18  1  0  0  0  0
 17 34  1  0  0  0  0
 17 35  1  0  0  0  0
 18 36  1  0  0  0  0
 19 37  1  0  0  0  0
 19 38  1  0  0  0  0
 20 22  2  0  0  0  0
 20 40  1  0  0  0  0
 22 23  1  0  0  0  0
 22 41  1  0  0  0  0
 24 25  1  0  0  0  0
 24 42  1  0  0  0  0
 24 43  1  0  0  0  0
 25 26  1  0  0  0  0
 25 44  1  0  0  0  0
 26 46  1  0  0  0  0
 26 47  1  0  0  0  0
 27 28  1  0  0  0  0
 27 29  1  0  0  0  0
 27 50  1  0  0  0  0
 27 51  1  0  0  0  0
 28 30  1  0  0  0  0
 28 52  1  0  0  0  0
 28 53  1  0  0  0  0
 29 31  1  0  0  0  0
 29 54  1  0  0  0  0
 29 55  1  0  0  0  0
 31 57  1  0  0  0  0
 31 58  1  0  0  0  0
 31 59  1  0  0  0  0
M  END
> <PUBCHEM_COMPOUND_CID>
10604814

> <PUBCHEM_COMPOUND_CANONICALIZED>
1

> <PUBCHEM_CACTVS_COMPLEXITY>
746

> <PUBCHEM_CACTVS_HBOND_ACCEPTOR>
10

> <PUBCHEM_CACTVS_HBOND_DONOR>
4

> <PUBCHEM_CACTVS_ROTATABLE_BOND>
13

> <PUBCHEM_CACTVS_SUBSKEYS>
AAADceB7PAIAAAAAAAAAAAAAAAAAASAAAAAgAAAAAAAAAAAAAAAAHgAQCCAACBThgAYDCANABxCoQCL2fICAAAEAAgAIAAEYABCBEBIAgAAOQAAHFgIDAAC4MAIAAAAAAAAAAAAAAAAAAAAAAAAAAAAAAA==

> <PUBCHEM_IUPAC_OPENEYE_NAME>
[(2R)-3-[[(2R,3S,5R)-5-(4-amino-2-oxo-pyrimidin-1-yl)-3-hydroxy-tetrahydrofuran-2-yl]methoxy-hydroxy-phosphoryl]oxy-2-hydroxy-propyl] pentanoate

> <PUBCHEM_IUPAC_CAS_NAME>
pentanoic acid [(2R)-3-[[(2R,3S,5R)-5-(4-amino-2-oxo-1-pyrimidinyl)-3-hydroxy-2-oxolanyl]methoxy-hydroxyphosphoryl]oxy-2-hydroxypropyl] ester

> <PUBCHEM_IUPAC_NAME_MARKUP>
[(2<I>R</I>)-3-[[(2<I>R</I>,3<I>S</I>,5<I>R</I>)-5-(4-amino-2-oxopyrimidin-1-yl)-3-hydroxyoxolan-2-yl]methoxy-hydroxyphosphoryl]oxy-2-hydroxypropyl] pentanoate

> <PUBCHEM_IUPAC_NAME>
[(2R)-3-[[(2R,3S,5R)-5-(4-amino-2-oxopyrimidin-1-yl)-3-hydroxyoxolan-2-yl]methoxy-hydroxyphosphoryl]oxy-2-hydroxypropyl] pentanoate

> <PUBCHEM_IUPAC_SYSTEMATIC_NAME>
[(2R)-3-[[(2R,3S,5R)-5-(4-azanyl-2-oxidanylidene-pyrimidin-1-yl)-3-oxidanyl-oxolan-2-yl]methoxy-oxidanyl-phosphoryl]oxy-2-oxidanyl-propyl] pentanoate

> <PUBCHEM_IUPAC_TRADITIONAL_NAME>
valeric acid [(2R)-3-[[(2R,3S,5R)-5-(4-amino-2-keto-pyrimidin-1-yl)-3-hydroxy-tetrahydrofuran-2-yl]methoxy-hydroxy-phosphoryl]oxy-2-hydroxy-propyl] ester

> <PUBCHEM_IUPAC_INCHI>
InChI=1S/C17H28N3O10P/c1-2-3-4-16(23)27-8-11(21)9-28-31(25,26)29-10-13-12(22)7-15(30-13)20-6-5-14(18)19-17(20)24/h5-6,11-13,15,21-22H,2-4,7-10H2,1H3,(H,25,26)(H2,18,19,24)/t11-,12+,13-,15-/m1/s1

> <PUBCHEM_IUPAC_INCHIKEY>
BWEFNVZDIHDJEV-QVHKTLOISA-N

> <PUBCHEM_XLOGP3>
-2.2

> <PUBCHEM_EXACT_MASS>
465.15123110

> <PUBCHEM_MOLECULAR_FORMULA>
C17H28N3O10P

> <PUBCHEM_MOLECULAR_WEIGHT>
465.4

> <PUBCHEM_OPENEYE_CAN_SMILES>
CCCCC(=O)OCC(COP(=O)(O)OCC1C(CC(O1)N2C=CC(=NC2=O)N)O)O

> <PUBCHEM_OPENEYE_ISO_SMILES>
CCCCC(=O)OC[C@H](COP(=O)(O)OC[C@@H]1[C@H](C[C@@H](O1)N2C=CC(=NC2=O)N)O)O

> <PUBCHEM_CACTVS_TPSA>
190

> <PUBCHEM_MONOISOTOPIC_WEIGHT>
465.15123110

> <PUBCHEM_TOTAL_CHARGE>
0

> <PUBCHEM_HEAVY_ATOM_COUNT>
31

> <PUBCHEM_ATOM_DEF_STEREO_COUNT>
4

> <PUBCHEM_ATOM_UDEF_STEREO_COUNT>
0

> <PUBCHEM_BOND_DEF_STEREO_COUNT>
0

> <PUBCHEM_BOND_UDEF_STEREO_COUNT>
0

> <PUBCHEM_ISOTOPIC_ATOM_COUNT>
0

> <PUBCHEM_COMPONENT_COUNT>
1

> <PUBCHEM_CACTVS_TAUTO_COUNT>
-1

> <PUBCHEM_COORDINATE_TYPE>
1
5
255

> <PUBCHEM_BONDANNOTATIONS>
25  10  5
18  12  6
12  20  8
12  21  8
13  21  8
13  23  8
16  19  6
20  22  8
22  23  8
15  3  5

$$$$
