 
  -OEChem-10192104132D

 23 23  0     1  0  0  0  0  0999 V2000
    3.7071   -1.6148    0.0000 O   0  0  0  0  0  0  0  0  0  0  0  0
    6.3461    0.9889    0.0000 O   0  0  0  0  0  0  0  0  0  0  0  0
    5.1213    2.2136    0.0000 O   0  0  0  0  0  0  0  0  0  0  0  0
    3.0000   -0.9077    0.0000 C   0  0  3  0  0  0  0  0  0  0  0  0
    2.0000   -0.9077    0.0000 C   0  0  0  0  0  0  0  0  0  0  0  0
    2.0000    0.0923    0.0000 C   0  0  0  0  0  0  0  0  0  0  0  0
    3.0000    0.0923    0.0000 C   0  0  0  0  0  0  0  0  0  0  0  0
    3.7071    0.7994    0.0000 C   0  0  0  0  0  0  0  0  0  0  0  0
    4.6730    0.5406    0.0000 C   0  0  3  0  0  0  0  0  0  0  0  0
    4.9318   -0.4253    0.0000 C   0  0  0  0  0  0  0  0  0  0  0  0
    5.3801    1.2477    0.0000 C   0  0  0  0  0  0  0  0  0  0  0  0
    3.5728   -0.6704    0.0000 H   0  0  0  0  0  0  0  0  0  0  0  0
    1.3800   -0.9077    0.0000 H   0  0  0  0  0  0  0  0  0  0  0  0
    2.0000   -1.5277    0.0000 H   0  0  0  0  0  0  0  0  0  0  0  0
    2.0000    0.7123    0.0000 H   0  0  0  0  0  0  0  0  0  0  0  0
    1.3800    0.0923    0.0000 H   0  0  0  0  0  0  0  0  0  0  0  0
    3.5466    1.3983    0.0000 H   0  0  0  0  0  0  0  0  0  0  0  0
    5.2719    0.3802    0.0000 H   0  0  0  0  0  0  0  0  0  0  0  0
    3.5466   -2.2136    0.0000 H   0  0  0  0  0  0  0  0  0  0  0  0
    4.3330   -0.5858    0.0000 H   0  0  0  0  0  0  0  0  0  0  0  0
    5.0923   -1.0242    0.0000 H   0  0  0  0  0  0  0  0  0  0  0  0
    5.5307   -0.2648    0.0000 H   0  0  0  0  0  0  0  0  0  0  0  0
    6.7845    1.4273    0.0000 H   0  0  0  0  0  0  0  0  0  0  0  0
  1  4  1  0  0  0  0
  1 19  1  0  0  0  0
  2 11  1  0  0  0  0
  2 23  1  0  0  0  0
  3 11  2  0  0  0  0
  4  5  1  0  0  0  0
  4  7  1  0  0  0  0
  4 12  1  0  0  0  0
  5  6  1  0  0  0  0
  5 13  1  0  0  0  0
  5 14  1  0  0  0  0
  6  7  1  0  0  0  0
  6 15  1  0  0  0  0
  6 16  1  0  0  0  0
  7  8  2  0  0  0  0
  8  9  1  0  0  0  0
  8 17  1  0  0  0  0
  9 10  1  0  0  0  0
  9 11  1  0  0  0  0
  9 18  1  0  0  0  0
 10 20  1  0  0  0  0
 10 21  1  0  0  0  0
 10 22  1  0  0  0  0
M  END
> <PUBCHEM_COMPOUND_CID>
5368925

> <PUBCHEM_COMPOUND_CANONICALIZED>
1

> <PUBCHEM_CACTVS_COMPLEXITY>
196

> <PUBCHEM_CACTVS_HBOND_ACCEPTOR>
3

> <PUBCHEM_CACTVS_HBOND_DONOR>
2

> <PUBCHEM_CACTVS_ROTATABLE_BOND>
2

> <PUBCHEM_CACTVS_SUBSKEYS>
AAADccBwMAAAAAAAAAAAAAAAAABgAAAAAAAAAAAAAAAAAAAAAAAAGgAACAAADRSggAICCAAAAgCIAiDSCAAAAAAgAAAACAEAAAgAFAAAAQAAUAAEwAAIEAIAAAAAAAAAAAAAAAAAAAAAAAAAAAAAAAAAAA==

> <PUBCHEM_IUPAC_OPENEYE_NAME>
(3Z)-3-(2-hydroxycyclobutylidene)-2-methyl-propanoic acid

> <PUBCHEM_IUPAC_CAS_NAME>
(3Z)-3-(2-hydroxycyclobutylidene)-2-methylpropanoic acid

> <PUBCHEM_IUPAC_NAME_MARKUP>
(3<I>Z</I>)-3-(2-hydroxycyclobutylidene)-2-methylpropanoic acid

> <PUBCHEM_IUPAC_NAME>
(3Z)-3-(2-hydroxycyclobutylidene)-2-methylpropanoic acid

> <PUBCHEM_IUPAC_SYSTEMATIC_NAME>
(3Z)-2-methyl-3-(2-oxidanylcyclobutylidene)propanoic acid

> <PUBCHEM_IUPAC_TRADITIONAL_NAME>
(3Z)-3-(2-hydroxycyclobutylidene)-2-methyl-propionic acid

> <PUBCHEM_IUPAC_INCHI>
InChI=1S/C8H12O3/c1-5(8(10)11)4-6-2-3-7(6)9/h4-5,7,9H,2-3H2,1H3,(H,10,11)/b6-4-

> <PUBCHEM_IUPAC_INCHIKEY>
OQEYAWOJIQEKQN-XQRVVYSFSA-N

> <PUBCHEM_XLOGP3_AA>
0.1

> <PUBCHEM_EXACT_MASS>
156.078644241

> <PUBCHEM_MOLECULAR_FORMULA>
C8H12O3

> <PUBCHEM_MOLECULAR_WEIGHT>
156.18

> <PUBCHEM_OPENEYE_CAN_SMILES>
CC(C=C1CCC1O)C(=O)O

> <PUBCHEM_OPENEYE_ISO_SMILES>
CC(/C=C\1/CCC1O)C(=O)O

> <PUBCHEM_CACTVS_TPSA>
57.5

> <PUBCHEM_MONOISOTOPIC_WEIGHT>
156.078644241

> <PUBCHEM_TOTAL_CHARGE>
0

> <PUBCHEM_HEAVY_ATOM_COUNT>
11

> <PUBCHEM_ATOM_DEF_STEREO_COUNT>
0

> <PUBCHEM_ATOM_UDEF_STEREO_COUNT>
2

> <PUBCHEM_BOND_DEF_STEREO_COUNT>
1

> <PUBCHEM_BOND_UDEF_STEREO_COUNT>
0

> <PUBCHEM_ISOTOPIC_ATOM_COUNT>
0

> <PUBCHEM_COMPONENT_COUNT>
1

> <PUBCHEM_CACTVS_TAUTO_COUNT>
-1

> <PUBCHEM_COORDINATE_TYPE>
1
5
255

> <PUBCHEM_BONDANNOTATIONS>
4  1  3
9  10  3

$$$$
