 
  -OEChem-10192103492D

 53 52  0     0  0  0  0  0  0999 V2000
    6.8671   -0.7500    0.0000 O   0  0  0  0  0  0  0  0  0  0  0  0
   18.1254    0.7500    0.0000 O   0  0  0  0  0  0  0  0  0  0  0  0
   17.2594   -0.7500    0.0000 O   0  0  0  0  0  0  0  0  0  0  0  0
    2.5369    0.7500    0.0000 O   0  0  0  0  0  0  0  0  0  0  0  0
    3.4030   -0.7500    0.0000 O   0  0  0  0  0  0  0  0  0  0  0  0
   12.0632    0.2500    0.0000 C   0  0  0  0  0  0  0  0  0  0  0  0
   11.1972    0.7500    0.0000 C   0  0  0  0  0  0  0  0  0  0  0  0
   12.9292    0.7500    0.0000 C   0  0  0  0  0  0  0  0  0  0  0  0
   10.3312    0.2500    0.0000 C   0  0  0  0  0  0  0  0  0  0  0  0
   13.7953    0.2500    0.0000 C   0  0  0  0  0  0  0  0  0  0  0  0
    9.4651    0.7500    0.0000 C   0  0  0  0  0  0  0  0  0  0  0  0
   14.6613    0.7500    0.0000 C   0  0  0  0  0  0  0  0  0  0  0  0
    8.5991    0.2500    0.0000 C   0  0  0  0  0  0  0  0  0  0  0  0
   15.5273    0.2500    0.0000 C   0  0  0  0  0  0  0  0  0  0  0  0
    7.7331    0.7500    0.0000 C   0  0  0  0  0  0  0  0  0  0  0  0
   16.3933    0.7500    0.0000 C   0  0  0  0  0  0  0  0  0  0  0  0
    6.8671    0.2500    0.0000 C   0  0  0  0  0  0  0  0  0  0  0  0
    6.0010    0.7500    0.0000 C   0  0  0  0  0  0  0  0  0  0  0  0
   17.2594    0.2500    0.0000 C   0  0  0  0  0  0  0  0  0  0  0  0
    5.1350    0.2500    0.0000 C   0  0  0  0  0  0  0  0  0  0  0  0
    4.2690    0.7500    0.0000 C   0  0  0  0  0  0  0  0  0  0  0  0
    5.1350   -0.7500    0.0000 C   0  0  0  0  0  0  0  0  0  0  0  0
    3.4030    0.2500    0.0000 C   0  0  0  0  0  0  0  0  0  0  0  0
   11.6647   -0.2249    0.0000 H   0  0  0  0  0  0  0  0  0  0  0  0
   12.4617   -0.2249    0.0000 H   0  0  0  0  0  0  0  0  0  0  0  0
   11.5957    1.2250    0.0000 H   0  0  0  0  0  0  0  0  0  0  0  0
   10.7987    1.2250    0.0000 H   0  0  0  0  0  0  0  0  0  0  0  0
   13.3278    1.2250    0.0000 H   0  0  0  0  0  0  0  0  0  0  0  0
   12.5307    1.2250    0.0000 H   0  0  0  0  0  0  0  0  0  0  0  0
    9.9326   -0.2249    0.0000 H   0  0  0  0  0  0  0  0  0  0  0  0
   10.7297   -0.2249    0.0000 H   0  0  0  0  0  0  0  0  0  0  0  0
   13.3967   -0.2249    0.0000 H   0  0  0  0  0  0  0  0  0  0  0  0
   14.1938   -0.2249    0.0000 H   0  0  0  0  0  0  0  0  0  0  0  0
    9.8637    1.2250    0.0000 H   0  0  0  0  0  0  0  0  0  0  0  0
    9.0666    1.2250    0.0000 H   0  0  0  0  0  0  0  0  0  0  0  0
   15.0598    1.2250    0.0000 H   0  0  0  0  0  0  0  0  0  0  0  0
   14.2628    1.2250    0.0000 H   0  0  0  0  0  0  0  0  0  0  0  0
    8.2006   -0.2249    0.0000 H   0  0  0  0  0  0  0  0  0  0  0  0
    8.9976   -0.2249    0.0000 H   0  0  0  0  0  0  0  0  0  0  0  0
   15.1288   -0.2249    0.0000 H   0  0  0  0  0  0  0  0  0  0  0  0
   15.9258   -0.2249    0.0000 H   0  0  0  0  0  0  0  0  0  0  0  0
    8.1316    1.2250    0.0000 H   0  0  0  0  0  0  0  0  0  0  0  0
    7.3346    1.2250    0.0000 H   0  0  0  0  0  0  0  0  0  0  0  0
   16.7919    1.2250    0.0000 H   0  0  0  0  0  0  0  0  0  0  0  0
   15.9948    1.2250    0.0000 H   0  0  0  0  0  0  0  0  0  0  0  0
    6.3996    1.2250    0.0000 H   0  0  0  0  0  0  0  0  0  0  0  0
    5.6025    1.2250    0.0000 H   0  0  0  0  0  0  0  0  0  0  0  0
    4.6675    1.2250    0.0000 H   0  0  0  0  0  0  0  0  0  0  0  0
    3.8705    1.2250    0.0000 H   0  0  0  0  0  0  0  0  0  0  0  0
    4.5981   -1.0600    0.0000 H   0  0  0  0  0  0  0  0  0  0  0  0
    5.6720   -1.0600    0.0000 H   0  0  0  0  0  0  0  0  0  0  0  0
   18.6623    0.4400    0.0000 H   0  0  0  0  0  0  0  0  0  0  0  0
    2.0000    0.4400    0.0000 H   0  0  0  0  0  0  0  0  0  0  0  0
  1 17  2  0  0  0  0
  2 19  1  0  0  0  0
  2 52  1  0  0  0  0
  3 19  2  0  0  0  0
  4 23  1  0  0  0  0
  4 53  1  0  0  0  0
  5 23  2  0  0  0  0
  6  7  1  0  0  0  0
  6  8  1  0  0  0  0
  6 24  1  0  0  0  0
  6 25  1  0  0  0  0
  7  9  1  0  0  0  0
  7 26  1  0  0  0  0
  7 27  1  0  0  0  0
  8 10  1  0  0  0  0
  8 28  1  0  0  0  0
  8 29  1  0  0  0  0
  9 11  1  0  0  0  0
  9 30  1  0  0  0  0
  9 31  1  0  0  0  0
 10 12  1  0  0  0  0
 10 32  1  0  0  0  0
 10 33  1  0  0  0  0
 11 13  1  0  0  0  0
 11 34  1  0  0  0  0
 11 35  1  0  0  0  0
 12 14  1  0  0  0  0
 12 36  1  0  0  0  0
 12 37  1  0  0  0  0
 13 15  1  0  0  0  0
 13 38  1  0  0  0  0
 13 39  1  0  0  0  0
 14 16  1  0  0  0  0
 14 40  1  0  0  0  0
 14 41  1  0  0  0  0
 15 17  1  0  0  0  0
 15 42  1  0  0  0  0
 15 43  1  0  0  0  0
 16 19  1  0  0  0  0
 16 44  1  0  0  0  0
 16 45  1  0  0  0  0
 17 18  1  0  0  0  0
 18 20  1  0  0  0  0
 18 46  1  0  0  0  0
 18 47  1  0  0  0  0
 20 21  1  0  0  0  0
 20 22  2  0  0  0  0
 21 23  1  0  0  0  0
 21 48  1  0  0  0  0
 21 49  1  0  0  0  0
 22 50  1  0  0  0  0
 22 51  1  0  0  0  0
M  END
> <PUBCHEM_COMPOUND_CID>
23469783

> <PUBCHEM_COMPOUND_CANONICALIZED>
1

> <PUBCHEM_CACTVS_COMPLEXITY>
387

> <PUBCHEM_CACTVS_HBOND_ACCEPTOR>
5

> <PUBCHEM_CACTVS_HBOND_DONOR>
2

> <PUBCHEM_CACTVS_ROTATABLE_BOND>
16

> <PUBCHEM_CACTVS_SUBSKEYS>
AAADceB4OAAAAAAAAAAAAAAAAAAAAAAAAAAAAAAAAAAAAAAAAAAAGgAACAAADASAgAAACAAAAgCIAoDSCAAAAAAgAAAAAAEAAAgAABIAAQAAQAAEwAAAAAGIzqCgAAAAAAAAAAAAAAAAAAAAAAAAAAAAAA==

> <PUBCHEM_IUPAC_OPENEYE_NAME>
3-methylene-5-oxo-heptadecanedioic acid

> <PUBCHEM_IUPAC_CAS_NAME>
3-methylene-5-oxoheptadecanedioic acid

> <PUBCHEM_IUPAC_NAME_MARKUP>
3-methylidene-5-oxoheptadecanedioic acid

> <PUBCHEM_IUPAC_NAME>
3-methylidene-5-oxoheptadecanedioic acid

> <PUBCHEM_IUPAC_SYSTEMATIC_NAME>
3-methylidene-5-oxidanylidene-heptadecanedioic acid

> <PUBCHEM_IUPAC_TRADITIONAL_NAME>
5-keto-3-methylene-heptadecanedioic acid

> <PUBCHEM_IUPAC_INCHI>
InChI=1S/C18H30O5/c1-15(14-18(22)23)13-16(19)11-9-7-5-3-2-4-6-8-10-12-17(20)21/h1-14H2,(H,20,21)(H,22,23)

> <PUBCHEM_IUPAC_INCHIKEY>
RTJZWWMDEOAJRL-UHFFFAOYSA-N

> <PUBCHEM_XLOGP3_AA>
4.3

> <PUBCHEM_EXACT_MASS>
326.20932405

> <PUBCHEM_MOLECULAR_FORMULA>
C18H30O5

> <PUBCHEM_MOLECULAR_WEIGHT>
326.4

> <PUBCHEM_OPENEYE_CAN_SMILES>
C=C(CC(=O)CCCCCCCCCCCC(=O)O)CC(=O)O

> <PUBCHEM_OPENEYE_ISO_SMILES>
C=C(CC(=O)CCCCCCCCCCCC(=O)O)CC(=O)O

> <PUBCHEM_CACTVS_TPSA>
91.7

> <PUBCHEM_MONOISOTOPIC_WEIGHT>
326.20932405

> <PUBCHEM_TOTAL_CHARGE>
0

> <PUBCHEM_HEAVY_ATOM_COUNT>
23

> <PUBCHEM_ATOM_DEF_STEREO_COUNT>
0

> <PUBCHEM_ATOM_UDEF_STEREO_COUNT>
0

> <PUBCHEM_BOND_DEF_STEREO_COUNT>
0

> <PUBCHEM_BOND_UDEF_STEREO_COUNT>
0

> <PUBCHEM_ISOTOPIC_ATOM_COUNT>
0

> <PUBCHEM_COMPONENT_COUNT>
1

> <PUBCHEM_CACTVS_TAUTO_COUNT>
-1

> <PUBCHEM_COORDINATE_TYPE>
1
5
255

$$$$
