 
  -OEChem-10192104152D

 15 14  0     1  0  0  0  0  0999 V2000
    6.0010   -1.0950    0.0000 O   0  0  0  0  0  0  0  0  0  0  0  0
    7.7331   -0.0950    0.0000 O   0  0  0  0  0  0  0  0  0  0  0  0
    6.8671    1.4050    0.0000 O   0  0  0  0  0  0  0  0  0  0  0  0
    2.5369    0.9050    0.0000 O   0  0  0  0  0  0  0  0  0  0  0  0
    6.0010   -0.0950    0.0000 C   0  0  3  0  0  0  0  0  0  0  0  0
    6.8671    0.4050    0.0000 C   0  0  0  0  0  0  0  0  0  0  0  0
    5.1350    0.4050    0.0000 C   0  0  0  0  0  0  0  0  0  0  0  0
    3.4030    1.4050    0.0000 C   0  0  0  0  0  0  0  0  0  0  0  0
    4.2690    0.9050    0.0000 C   0  0  0  0  0  0  0  0  0  0  0  0
    6.5380   -0.4050    0.0000 H   0  0  0  0  0  0  0  0  0  0  0  0
    3.8015    1.8800    0.0000 H   0  0  0  0  0  0  0  0  0  0  0  0
    3.0044    1.8800    0.0000 H   0  0  0  0  0  0  0  0  0  0  0  0
    5.4641   -1.4050    0.0000 H   0  0  0  0  0  0  0  0  0  0  0  0
    8.2700    0.2150    0.0000 H   0  0  0  0  0  0  0  0  0  0  0  0
    2.0000    1.2150    0.0000 H   0  0  0  0  0  0  0  0  0  0  0  0
  1  5  1  0  0  0  0
  1 13  1  0  0  0  0
  2  6  1  0  0  0  0
  2 14  1  0  0  0  0
  3  6  2  0  0  0  0
  4  8  1  0  0  0  0
  4 15  1  0  0  0  0
  5  6  1  0  0  0  0
  5  7  1  0  0  0  0
  5 10  1  0  0  0  0
  7  9  3  0  0  0  0
  8  9  1  0  0  0  0
  8 11  1  0  0  0  0
  8 12  1  0  0  0  0
M  END
> <PUBCHEM_COMPOUND_CID>
87854706

> <PUBCHEM_COMPOUND_CANONICALIZED>
1

> <PUBCHEM_CACTVS_COMPLEXITY>
160

> <PUBCHEM_CACTVS_HBOND_ACCEPTOR>
4

> <PUBCHEM_CACTVS_HBOND_DONOR>
3

> <PUBCHEM_CACTVS_ROTATABLE_BOND>
1

> <PUBCHEM_CACTVS_SUBSKEYS>
AAADcYBgOAAAAAAAAAAAAAAAAAAAAAAAAAAAAAAAAAAAAAAAAAAAGgAACAAACBSggAIACAAAAgBIEACQCAoAAAAAAAAAAAFAAAABEAAAAAAAQAAAAAABAAAAAAAAAAAAAAAAAAAAAAAAAAAAAAAAAAAAAA==

> <PUBCHEM_IUPAC_OPENEYE_NAME>
2,5-dihydroxypent-3-ynoic acid

> <PUBCHEM_IUPAC_CAS_NAME>
2,5-dihydroxy-3-pentynoic acid

> <PUBCHEM_IUPAC_NAME_MARKUP>
2,5-dihydroxypent-3-ynoic acid

> <PUBCHEM_IUPAC_NAME>
2,5-dihydroxypent-3-ynoic acid

> <PUBCHEM_IUPAC_SYSTEMATIC_NAME>
2,5-bis(oxidanyl)pent-3-ynoic acid

> <PUBCHEM_IUPAC_TRADITIONAL_NAME>
2,5-dihydroxypent-3-ynoic acid

> <PUBCHEM_IUPAC_INCHI>
InChI=1S/C5H6O4/c6-3-1-2-4(7)5(8)9/h4,6-7H,3H2,(H,8,9)

> <PUBCHEM_IUPAC_INCHIKEY>
CDTUJKGORJZTBE-UHFFFAOYSA-N

> <PUBCHEM_XLOGP3_AA>
-1.3

> <PUBCHEM_EXACT_MASS>
130.02660867

> <PUBCHEM_MOLECULAR_FORMULA>
C5H6O4

> <PUBCHEM_MOLECULAR_WEIGHT>
130.10

> <PUBCHEM_OPENEYE_CAN_SMILES>
C(C#CC(C(=O)O)O)O

> <PUBCHEM_OPENEYE_ISO_SMILES>
C(C#CC(C(=O)O)O)O

> <PUBCHEM_CACTVS_TPSA>
77.8

> <PUBCHEM_MONOISOTOPIC_WEIGHT>
130.02660867

> <PUBCHEM_TOTAL_CHARGE>
0

> <PUBCHEM_HEAVY_ATOM_COUNT>
9

> <PUBCHEM_ATOM_DEF_STEREO_COUNT>
0

> <PUBCHEM_ATOM_UDEF_STEREO_COUNT>
1

> <PUBCHEM_BOND_DEF_STEREO_COUNT>
0

> <PUBCHEM_BOND_UDEF_STEREO_COUNT>
0

> <PUBCHEM_ISOTOPIC_ATOM_COUNT>
0

> <PUBCHEM_COMPONENT_COUNT>
1

> <PUBCHEM_CACTVS_TAUTO_COUNT>
-1

> <PUBCHEM_COORDINATE_TYPE>
1
5
255

> <PUBCHEM_BONDANNOTATIONS>
5  1  3

$$$$
