 
  -OEChem-10192104392D

 69 72  0     1  0  0  0  0  0999 V2000
   15.0146   -0.2961    0.0000 O   0  0  0  0  0  0  0  0  0  0  0  0
   11.5263    0.5950    0.0000 O   0  0  0  0  0  0  0  0  0  0  0  0
   12.3923   -0.9050    0.0000 O   0  0  0  0  0  0  0  0  0  0  0  0
   15.7882    1.0950    0.0000 O   0  0  0  0  0  0  0  0  0  0  0  0
   10.6603   -0.9050    0.0000 O   0  0  0  0  0  0  0  0  0  0  0  0
   12.3923   -2.9050    0.0000 O   0  0  0  0  0  0  0  0  0  0  0  0
   11.5263    3.5950    0.0000 O   0  0  0  0  0  0  0  0  0  0  0  0
   10.6603   -3.9050    0.0000 O   0  0  0  0  0  0  0  0  0  0  0  0
   13.2583    3.5950    0.0000 O   0  0  0  0  0  0  0  0  0  0  0  0
    8.9282   -2.9050    0.0000 O   0  0  0  0  0  0  0  0  0  0  0  0
    8.0622   -1.4050    0.0000 O   0  0  0  0  0  0  0  0  0  0  0  0
    7.1962    0.0950    0.0000 O   0  0  0  0  0  0  0  0  0  0  0  0
    2.0000   -0.9050    0.0000 O   0  0  0  0  0  0  0  0  0  0  0  0
    2.0000   -2.9050    0.0000 O   0  0  0  0  0  0  0  0  0  0  0  0
   13.2583    0.5950    0.0000 C   0  0  3  0  0  0  0  0  0  0  0  0
   14.2045    0.2903    0.0000 C   0  0  2  0  0  0  0  0  0  0  0  0
   13.2583    1.5950    0.0000 C   0  0  3  0  0  0  0  0  0  0  0  0
   14.7882    1.0950    0.0000 C   0  0  2  0  0  0  0  0  0  0  0  0
   14.2045    1.8997    0.0000 C   0  0  0  0  0  0  0  0  0  0  0  0
   12.3923    0.0950    0.0000 C   0  0  1  0  0  0  0  0  0  0  0  0
   12.3923    2.0950    0.0000 C   0  0  0  0  0  0  0  0  0  0  0  0
   13.8972   -0.6613    0.0000 C   0  0  0  0  0  0  0  0  0  0  0  0
   11.5263    1.5950    0.0000 C   0  0  0  0  0  0  0  0  0  0  0  0
   11.5263   -1.4050    0.0000 C   0  0  2  0  0  0  0  0  0  0  0  0
   11.5263   -2.4050    0.0000 C   0  0  1  0  0  0  0  0  0  0  0  0
   12.3923    3.0950    0.0000 C   0  0  0  0  0  0  0  0  0  0  0  0
   10.6603   -2.9050    0.0000 C   0  0  2  0  0  0  0  0  0  0  0  0
    9.7942   -2.4050    0.0000 C   0  0  1  0  0  0  0  0  0  0  0  0
    9.7942   -1.4050    0.0000 C   0  0  1  0  0  0  0  0  0  0  0  0
    8.9282   -0.9050    0.0000 C   0  0  0  0  0  0  0  0  0  0  0  0
    7.1962   -0.9050    0.0000 C   0  0  0  0  0  0  0  0  0  0  0  0
    6.3301   -1.4050    0.0000 C   0  0  0  0  0  0  0  0  0  0  0  0
    5.4641   -0.9050    0.0000 C   0  0  0  0  0  0  0  0  0  0  0  0
    4.5981   -1.4050    0.0000 C   0  0  0  0  0  0  0  0  0  0  0  0
    3.7320   -0.9050    0.0000 C   0  0  0  0  0  0  0  0  0  0  0  0
    4.5981   -2.4050    0.0000 C   0  0  0  0  0  0  0  0  0  0  0  0
    2.8660   -1.4050    0.0000 C   0  0  0  0  0  0  0  0  0  0  0  0
    3.7320   -2.9050    0.0000 C   0  0  0  0  0  0  0  0  0  0  0  0
    2.8660   -2.4050    0.0000 C   0  0  0  0  0  0  0  0  0  0  0  0
   13.3239   -0.0215    0.0000 H   0  0  0  0  0  0  0  0  0  0  0  0
   13.3239    2.2115    0.0000 H   0  0  0  0  0  0  0  0  0  0  0  0
   15.0699    0.5427    0.0000 H   0  0  0  0  0  0  0  0  0  0  0  0
   14.7419    2.2090    0.0000 H   0  0  0  0  0  0  0  0  0  0  0  0
   13.9535    2.4666    0.0000 H   0  0  0  0  0  0  0  0  0  0  0  0
   12.9292   -0.2150    0.0000 H   0  0  0  0  0  0  0  0  0  0  0  0
   13.3072   -0.4708    0.0000 H   0  0  0  0  0  0  0  0  0  0  0  0
   13.7066   -1.2513    0.0000 H   0  0  0  0  0  0  0  0  0  0  0  0
   14.4872   -0.8519    0.0000 H   0  0  0  0  0  0  0  0  0  0  0  0
   14.9508   -0.9128    0.0000 H   0  0  0  0  0  0  0  0  0  0  0  0
   10.9893    1.9050    0.0000 H   0  0  0  0  0  0  0  0  0  0  0  0
   16.0982    1.6319    0.0000 H   0  0  0  0  0  0  0  0  0  0  0  0
   11.5263   -0.7850    0.0000 H   0  0  0  0  0  0  0  0  0  0  0  0
   11.5263   -3.0250    0.0000 H   0  0  0  0  0  0  0  0  0  0  0  0
   10.1233   -3.2150    0.0000 H   0  0  0  0  0  0  0  0  0  0  0  0
    9.2573   -2.0950    0.0000 H   0  0  0  0  0  0  0  0  0  0  0  0
    9.7942   -0.7850    0.0000 H   0  0  0  0  0  0  0  0  0  0  0  0
    9.3267   -0.4301    0.0000 H   0  0  0  0  0  0  0  0  0  0  0  0
    8.5297   -0.4301    0.0000 H   0  0  0  0  0  0  0  0  0  0  0  0
   12.3923   -3.5250    0.0000 H   0  0  0  0  0  0  0  0  0  0  0  0
   11.5263    4.2150    0.0000 H   0  0  0  0  0  0  0  0  0  0  0  0
   10.1233   -4.2150    0.0000 H   0  0  0  0  0  0  0  0  0  0  0  0
    8.9282   -3.5250    0.0000 H   0  0  0  0  0  0  0  0  0  0  0  0
    6.3301   -2.0250    0.0000 H   0  0  0  0  0  0  0  0  0  0  0  0
    5.4641   -0.2850    0.0000 H   0  0  0  0  0  0  0  0  0  0  0  0
    3.7320   -0.2850    0.0000 H   0  0  0  0  0  0  0  0  0  0  0  0
    5.1350   -2.7150    0.0000 H   0  0  0  0  0  0  0  0  0  0  0  0
    3.7320   -3.5250    0.0000 H   0  0  0  0  0  0  0  0  0  0  0  0
    2.0000   -0.2850    0.0000 H   0  0  0  0  0  0  0  0  0  0  0  0
    2.0000   -3.5250    0.0000 H   0  0  0  0  0  0  0  0  0  0  0  0
 16  1  1  6  0  0  0
  1 49  1  0  0  0  0
  2 20  1  0  0  0  0
  2 23  1  0  0  0  0
  3 20  1  0  0  0  0
 24  3  1  1  0  0  0
 18  4  1  6  0  0  0
  4 51  1  0  0  0  0
  5 24  1  0  0  0  0
  5 29  1  0  0  0  0
 25  6  1  6  0  0  0
  6 59  1  0  0  0  0
  7 26  1  0  0  0  0
  7 60  1  0  0  0  0
 27  8  1  1  0  0  0
  8 61  1  0  0  0  0
  9 26  2  0  0  0  0
 28 10  1  6  0  0  0
 10 62  1  0  0  0  0
 11 30  1  0  0  0  0
 11 31  1  0  0  0  0
 12 31  2  0  0  0  0
 13 37  1  0  0  0  0
 13 68  1  0  0  0  0
 14 39  1  0  0  0  0
 14 69  1  0  0  0  0
 15 16  1  0  0  0  0
 15 17  1  0  0  0  0
 15 20  1  0  0  0  0
 15 40  1  0  0  0  0
 16 18  1  0  0  0  0
 16 22  1  0  0  0  0
 17 19  1  0  0  0  0
 17 21  1  0  0  0  0
 17 41  1  0  0  0  0
 18 19  1  0  0  0  0
 18 42  1  0  0  0  0
 19 43  1  0  0  0  0
 19 44  1  0  0  0  0
 20 45  1  0  0  0  0
 21 23  2  0  0  0  0
 21 26  1  0  0  0  0
 22 46  1  0  0  0  0
 22 47  1  0  0  0  0
 22 48  1  0  0  0  0
 23 50  1  0  0  0  0
 24 25  1  0  0  0  0
 24 52  1  0  0  0  0
 25 27  1  0  0  0  0
 25 53  1  0  0  0  0
 27 28  1  0  0  0  0
 27 54  1  0  0  0  0
 28 29  1  0  0  0  0
 28 55  1  0  0  0  0
 29 30  1  1  0  0  0
 29 56  1  0  0  0  0
 30 57  1  0  0  0  0
 30 58  1  0  0  0  0
 31 32  1  0  0  0  0
 32 33  2  0  0  0  0
 32 63  1  0  0  0  0
 33 34  1  0  0  0  0
 33 64  1  0  0  0  0
 34 35  2  0  0  0  0
 34 36  1  0  0  0  0
 35 37  1  0  0  0  0
 35 65  1  0  0  0  0
 36 38  2  0  0  0  0
 36 66  1  0  0  0  0
 37 39  2  0  0  0  0
 38 39  1  0  0  0  0
 38 67  1  0  0  0  0
M  END
> <PUBCHEM_COMPOUND_CID>
100929806

> <PUBCHEM_COMPOUND_CANONICALIZED>
1

> <PUBCHEM_CACTVS_COMPLEXITY>
968

> <PUBCHEM_CACTVS_HBOND_ACCEPTOR>
14

> <PUBCHEM_CACTVS_HBOND_DONOR>
8

> <PUBCHEM_CACTVS_ROTATABLE_BOND>
8

> <PUBCHEM_CACTVS_SUBSKEYS>
AAADceB4PAAAAAAAAAAAAAAAAAAAAYAAAAA0QIAAAAAAAEABAAAAGgAACAAADVSwmAMyDoAABgCIAiDSCAACCAAgIAAIiAEGiMgZNjKCMRKicAElwBEPuYfI7PzOoAABAAAAQABAAAIAAACAAYAADCAAAA==

> <PUBCHEM_IUPAC_OPENEYE_NAME>
(1S,6S,7R)-1-[(2S,3R,4S,5S,6R)-6-[[(E)-3-(3,4-dihydroxyphenyl)prop-2-enoyl]oxymethyl]-3,4,5-trihydroxy-tetrahydropyran-2-yl]oxy-6,7-dihydroxy-7-methyl-4a,5,6,7a-tetrahydro-1H-cyclopenta[c]pyran-4-carboxylic acid

> <PUBCHEM_IUPAC_CAS_NAME>
(1S,6S,7R)-1-[[(2S,3R,4S,5S,6R)-6-[[(E)-3-(3,4-dihydroxyphenyl)-1-oxoprop-2-enoxy]methyl]-3,4,5-trihydroxy-2-oxanyl]oxy]-6,7-dihydroxy-7-methyl-4a,5,6,7a-tetrahydro-1H-cyclopenta[c]pyran-4-carboxylic acid

> <PUBCHEM_IUPAC_NAME_MARKUP>
(1<I>S</I>,6<I>S</I>,7<I>R</I>)-1-[(2<I>S</I>,3<I>R</I>,4<I>S</I>,5<I>S</I>,6<I>R</I>)-6-[[(<I>E</I>)-3-(3,4-dihydroxyphenyl)prop-2-enoyl]oxymethyl]-3,4,5-trihydroxyoxan-2-yl]oxy-6,7-dihydroxy-7-methyl-4<I>a</I>,5,6,7<I>a</I>-tetrahydro-1<I>H</I>-cyclopenta[c]pyran-4-carboxylic acid

> <PUBCHEM_IUPAC_NAME>
(1S,6S,7R)-1-[(2S,3R,4S,5S,6R)-6-[[(E)-3-(3,4-dihydroxyphenyl)prop-2-enoyl]oxymethyl]-3,4,5-trihydroxyoxan-2-yl]oxy-6,7-dihydroxy-7-methyl-4a,5,6,7a-tetrahydro-1H-cyclopenta[c]pyran-4-carboxylic acid

> <PUBCHEM_IUPAC_SYSTEMATIC_NAME>
(1S,6S,7R)-1-[(2S,3R,4S,5S,6R)-6-[[(E)-3-[3,4-bis(oxidanyl)phenyl]prop-2-enoyl]oxymethyl]-3,4,5-tris(oxidanyl)oxan-2-yl]oxy-7-methyl-6,7-bis(oxidanyl)-4a,5,6,7a-tetrahydro-1H-cyclopenta[c]pyran-4-carboxylic acid

> <PUBCHEM_IUPAC_TRADITIONAL_NAME>
(1S,6S,7R)-1-[(2S,3R,4S,5S,6R)-6-[[(E)-3-(3,4-dihydroxyphenyl)acryloyl]oxymethyl]-3,4,5-trihydroxy-tetrahydropyran-2-yl]oxy-6,7-dihydroxy-7-methyl-4a,5,6,7a-tetrahydro-1H-cyclopenta[c]pyran-4-carboxylic acid

> <PUBCHEM_IUPAC_INCHI>
InChI=1S/C25H30O14/c1-25(35)16(28)7-11-12(22(33)34)8-37-23(18(11)25)39-24-21(32)20(31)19(30)15(38-24)9-36-17(29)5-3-10-2-4-13(26)14(27)6-10/h2-6,8,11,15-16,18-21,23-24,26-28,30-32,35H,7,9H2,1H3,(H,33,34)/b5-3+/t11?,15-,16+,18?,19-,20+,21-,23+,24+,25+/m1/s1

> <PUBCHEM_IUPAC_INCHIKEY>
YHZBVXGYEGLXCQ-JFEGOXIESA-N

> <PUBCHEM_XLOGP3_AA>
-1.5

> <PUBCHEM_EXACT_MASS>
554.16355563

> <PUBCHEM_MOLECULAR_FORMULA>
C25H30O14

> <PUBCHEM_MOLECULAR_WEIGHT>
554.5

> <PUBCHEM_OPENEYE_CAN_SMILES>
CC1(C(CC2C1C(OC=C2C(=O)O)OC3C(C(C(C(O3)COC(=O)C=CC4=CC(=C(C=C4)O)O)O)O)O)O)O

> <PUBCHEM_OPENEYE_ISO_SMILES>
C[C@@]1([C@H](CC2C1[C@@H](OC=C2C(=O)O)O[C@H]3[C@@H]([C@H]([C@@H]([C@H](O3)COC(=O)/C=C/C4=CC(=C(C=C4)O)O)O)O)O)O)O

> <PUBCHEM_CACTVS_TPSA>
233

> <PUBCHEM_MONOISOTOPIC_WEIGHT>
554.16355563

> <PUBCHEM_TOTAL_CHARGE>
0

> <PUBCHEM_HEAVY_ATOM_COUNT>
39

> <PUBCHEM_ATOM_DEF_STEREO_COUNT>
8

> <PUBCHEM_ATOM_UDEF_STEREO_COUNT>
2

> <PUBCHEM_BOND_DEF_STEREO_COUNT>
1

> <PUBCHEM_BOND_UDEF_STEREO_COUNT>
0

> <PUBCHEM_ISOTOPIC_ATOM_COUNT>
0

> <PUBCHEM_COMPONENT_COUNT>
1

> <PUBCHEM_CACTVS_TAUTO_COUNT>
-1

> <PUBCHEM_COORDINATE_TYPE>
1
5
255

> <PUBCHEM_BONDANNOTATIONS>
16  1  6
28  10  6
15  20  3
17  19  3
29  30  5
24  3  5
34  35  8
34  36  8
35  37  8
36  38  8
37  39  8
38  39  8
18  4  6
25  6  6
27  8  5

$$$$
