 
  -OEChem-10192104392D

 47 47  0     0  0  0  0  0  0999 V2000
    7.1962   -2.0000    0.0000 O   0  0  0  0  0  0  0  0  0  0  0  0
    8.9282   -3.0000    0.0000 O   0  0  0  0  0  0  0  0  0  0  0  0
    3.7320   -2.0000    0.0000 O   0  0  0  0  0  0  0  0  0  0  0  0
    4.5981   -0.5000    0.0000 O   0  0  0  0  0  0  0  0  0  0  0  0
   11.5263    1.5000    0.0000 O   0  0  0  0  0  0  0  0  0  0  0  0
   10.6603    0.0000    0.0000 O   0  0  0  0  0  0  0  0  0  0  0  0
    9.7942    3.5000    0.0000 N   0  0  0  0  0  0  0  0  0  0  0  0
    8.0622   -1.5000    0.0000 C   0  0  0  0  0  0  0  0  0  0  0  0
    6.3301   -1.5000    0.0000 C   0  0  0  0  0  0  0  0  0  0  0  0
    8.9282    0.0000    0.0000 C   0  0  0  0  0  0  0  0  0  0  0  0
    5.4641   -2.0000    0.0000 C   0  0  0  0  0  0  0  0  0  0  0  0
    8.9282   -2.0000    0.0000 C   0  0  0  0  0  0  0  0  0  0  0  0
    8.0622   -0.5000    0.0000 C   0  0  0  0  0  0  0  0  0  0  0  0
    9.7942   -0.5000    0.0000 C   0  0  0  0  0  0  0  0  0  0  0  0
    9.7942   -1.5000    0.0000 C   0  0  0  0  0  0  0  0  0  0  0  0
    8.9282    1.0000    0.0000 C   0  0  0  0  0  0  0  0  0  0  0  0
    4.5981   -1.5000    0.0000 C   0  0  0  0  0  0  0  0  0  0  0  0
    9.7942    1.5000    0.0000 C   0  0  0  0  0  0  0  0  0  0  0  0
    2.8660   -1.5000    0.0000 C   0  0  0  0  0  0  0  0  0  0  0  0
    9.7942   -3.5000    0.0000 C   0  0  0  0  0  0  0  0  0  0  0  0
    2.0000   -2.0000    0.0000 C   0  0  0  0  0  0  0  0  0  0  0  0
   10.6603    1.0000    0.0000 C   0  0  0  0  0  0  0  0  0  0  0  0
    9.7942    2.5000    0.0000 C   0  0  0  0  0  0  0  0  0  0  0  0
   12.3923    1.0000    0.0000 C   0  0  0  0  0  0  0  0  0  0  0  0
   13.2583    1.5000    0.0000 C   0  0  0  0  0  0  0  0  0  0  0  0
   14.1244    1.0000    0.0000 C   0  0  0  0  0  0  0  0  0  0  0  0
    6.7287   -1.0250    0.0000 H   0  0  0  0  0  0  0  0  0  0  0  0
    5.9316   -1.0250    0.0000 H   0  0  0  0  0  0  0  0  0  0  0  0
    5.0656   -2.4750    0.0000 H   0  0  0  0  0  0  0  0  0  0  0  0
    5.8626   -2.4750    0.0000 H   0  0  0  0  0  0  0  0  0  0  0  0
    7.5252   -0.1900    0.0000 H   0  0  0  0  0  0  0  0  0  0  0  0
   10.3312   -0.1900    0.0000 H   0  0  0  0  0  0  0  0  0  0  0  0
   10.3312   -1.8100    0.0000 H   0  0  0  0  0  0  0  0  0  0  0  0
    8.3913    1.3100    0.0000 H   0  0  0  0  0  0  0  0  0  0  0  0
    3.2646   -1.0250    0.0000 H   0  0  0  0  0  0  0  0  0  0  0  0
    2.4675   -1.0250    0.0000 H   0  0  0  0  0  0  0  0  0  0  0  0
    9.4842   -4.0369    0.0000 H   0  0  0  0  0  0  0  0  0  0  0  0
   10.3312   -3.8100    0.0000 H   0  0  0  0  0  0  0  0  0  0  0  0
   10.1042   -2.9631    0.0000 H   0  0  0  0  0  0  0  0  0  0  0  0
    1.6900   -1.4631    0.0000 H   0  0  0  0  0  0  0  0  0  0  0  0
    1.4631   -2.3100    0.0000 H   0  0  0  0  0  0  0  0  0  0  0  0
    2.3100   -2.5369    0.0000 H   0  0  0  0  0  0  0  0  0  0  0  0
   11.9938    0.5251    0.0000 H   0  0  0  0  0  0  0  0  0  0  0  0
   12.7908    0.5251    0.0000 H   0  0  0  0  0  0  0  0  0  0  0  0
   13.2583    2.1200    0.0000 H   0  0  0  0  0  0  0  0  0  0  0  0
   14.1244    0.3800    0.0000 H   0  0  0  0  0  0  0  0  0  0  0  0
   14.6613    1.3100    0.0000 H   0  0  0  0  0  0  0  0  0  0  0  0
  1  8  1  0  0  0  0
  1  9  1  0  0  0  0
  2 12  1  0  0  0  0
  2 20  1  0  0  0  0
  3 17  1  0  0  0  0
  3 19  1  0  0  0  0
  4 17  2  0  0  0  0
  5 22  1  0  0  0  0
  5 24  1  0  0  0  0
  6 22  2  0  0  0  0
  7 23  3  0  0  0  0
  8 12  2  0  0  0  0
  8 13  1  0  0  0  0
  9 11  1  0  0  0  0
  9 27  1  0  0  0  0
  9 28  1  0  0  0  0
 10 13  2  0  0  0  0
 10 14  1  0  0  0  0
 10 16  1  0  0  0  0
 11 17  1  0  0  0  0
 11 29  1  0  0  0  0
 11 30  1  0  0  0  0
 12 15  1  0  0  0  0
 13 31  1  0  0  0  0
 14 15  2  0  0  0  0
 14 32  1  0  0  0  0
 15 33  1  0  0  0  0
 16 18  2  0  0  0  0
 16 34  1  0  0  0  0
 18 22  1  0  0  0  0
 18 23  1  0  0  0  0
 19 21  1  0  0  0  0
 19 35  1  0  0  0  0
 19 36  1  0  0  0  0
 20 37  1  0  0  0  0
 20 38  1  0  0  0  0
 20 39  1  0  0  0  0
 21 40  1  0  0  0  0
 21 41  1  0  0  0  0
 21 42  1  0  0  0  0
 24 25  1  0  0  0  0
 24 43  1  0  0  0  0
 24 44  1  0  0  0  0
 25 26  2  0  0  0  0
 25 45  1  0  0  0  0
 26 46  1  0  0  0  0
 26 47  1  0  0  0  0
M  END
> <PUBCHEM_COMPOUND_CID>
137682651

> <PUBCHEM_COMPOUND_CANONICALIZED>
1

> <PUBCHEM_CACTVS_COMPLEXITY>
562

> <PUBCHEM_CACTVS_HBOND_ACCEPTOR>
7

> <PUBCHEM_CACTVS_HBOND_DONOR>
0

> <PUBCHEM_CACTVS_ROTATABLE_BOND>
12

> <PUBCHEM_CACTVS_SUBSKEYS>
AAADceB6OAAAAAAAAAAAAAAAAAAAAAAAAAAwAAAAAAAAAAABAAAAHgAAAAAADAShmAIyDoAABACYBiDSCAAiCAAgIAAIiAEGiMgNpiaEMRqCOCKl4BEKqYeAwBAOIAABAAAAQABAAAIAAACAAAAAAAAAAA==

> <PUBCHEM_IUPAC_OPENEYE_NAME>
allyl (Z)-2-cyano-3-[3-(3-ethoxy-3-oxo-propoxy)-4-methoxy-phenyl]prop-2-enoate

> <PUBCHEM_IUPAC_CAS_NAME>
(Z)-2-cyano-3-[3-(3-ethoxy-3-oxopropoxy)-4-methoxyphenyl]-2-propenoic acid prop-2-enyl ester

> <PUBCHEM_IUPAC_NAME_MARKUP>
prop-2-enyl (<I>Z</I>)-2-cyano-3-[3-(3-ethoxy-3-oxopropoxy)-4-methoxyphenyl]prop-2-enoate

> <PUBCHEM_IUPAC_NAME>
prop-2-enyl (Z)-2-cyano-3-[3-(3-ethoxy-3-oxopropoxy)-4-methoxyphenyl]prop-2-enoate

> <PUBCHEM_IUPAC_SYSTEMATIC_NAME>
prop-2-enyl (Z)-2-cyano-3-[3-(3-ethoxy-3-oxidanylidene-propoxy)-4-methoxy-phenyl]prop-2-enoate

> <PUBCHEM_IUPAC_TRADITIONAL_NAME>
(Z)-2-cyano-3-[3-(3-ethoxy-3-keto-propoxy)-4-methoxy-phenyl]acrylic acid allyl ester

> <PUBCHEM_IUPAC_INCHI>
InChI=1S/C19H21NO6/c1-4-9-26-19(22)15(13-20)11-14-6-7-16(23-3)17(12-14)25-10-8-18(21)24-5-2/h4,6-7,11-12H,1,5,8-10H2,2-3H3/b15-11-

> <PUBCHEM_IUPAC_INCHIKEY>
SKCTXHIUKYVLQU-PTNGSMBKSA-N

> <PUBCHEM_XLOGP3_AA>
2.9

> <PUBCHEM_EXACT_MASS>
359.13688739

> <PUBCHEM_MOLECULAR_FORMULA>
C19H21NO6

> <PUBCHEM_MOLECULAR_WEIGHT>
359.4

> <PUBCHEM_OPENEYE_CAN_SMILES>
CCOC(=O)CCOC1=C(C=CC(=C1)C=C(C#N)C(=O)OCC=C)OC

> <PUBCHEM_OPENEYE_ISO_SMILES>
CCOC(=O)CCOC1=C(C=CC(=C1)/C=C(/C#N)\C(=O)OCC=C)OC

> <PUBCHEM_CACTVS_TPSA>
94.8

> <PUBCHEM_MONOISOTOPIC_WEIGHT>
359.13688739

> <PUBCHEM_TOTAL_CHARGE>
0

> <PUBCHEM_HEAVY_ATOM_COUNT>
26

> <PUBCHEM_ATOM_DEF_STEREO_COUNT>
0

> <PUBCHEM_ATOM_UDEF_STEREO_COUNT>
0

> <PUBCHEM_BOND_DEF_STEREO_COUNT>
1

> <PUBCHEM_BOND_UDEF_STEREO_COUNT>
0

> <PUBCHEM_ISOTOPIC_ATOM_COUNT>
0

> <PUBCHEM_COMPONENT_COUNT>
1

> <PUBCHEM_CACTVS_TAUTO_COUNT>
-1

> <PUBCHEM_COORDINATE_TYPE>
1
5
255

> <PUBCHEM_BONDANNOTATIONS>
10  13  8
10  14  8
12  15  8
14  15  8
8  12  8
8  13  8

$$$$
