 
  -OEChem-10192103562D

 96 99  0     1  0  0  0  0  0999 V2000
   13.3312    0.1771    0.0000 O   0  0  0  0  0  0  0  0  0  0  0  0
   10.3312   -1.5549    0.0000 O   0  0  0  0  0  0  0  0  0  0  0  0
   12.3312   -1.5549    0.0000 O   0  0  0  0  0  0  0  0  0  0  0  0
   13.3312   -1.5549    0.0000 O   0  0  0  0  0  0  0  0  0  0  0  0
   11.4651    4.1412    0.0000 O   0  0  0  0  0  0  0  0  0  0  0  0
    8.5991   -1.5549    0.0000 O   0  0  0  0  0  0  0  0  0  0  0  0
   10.8312    2.7752    0.0000 O   0  0  0  0  0  0  0  0  0  0  0  0
   15.3312    0.1771    0.0000 O   0  0  0  0  0  0  0  0  0  0  0  0
   15.6972   -2.9210    0.0000 O   0  0  0  0  0  0  0  0  0  0  0  0
   10.3312   -3.5549    0.0000 O   0  0  0  0  0  0  0  0  0  0  0  0
    8.5991   -4.5549    0.0000 O   0  0  0  0  0  0  0  0  0  0  0  0
    6.8671   -3.5549    0.0000 O   0  0  0  0  0  0  0  0  0  0  0  0
    2.5369   -2.0549    0.0000 O   0  0  0  0  0  0  0  0  0  0  0  0
   12.3312    1.9092    0.0000 N   0  0  0  0  0  0  0  0  0  0  0  0
    9.3312    0.1771    0.0000 N   0  0  0  0  0  0  0  0  0  0  0  0
   14.6631    4.2661    0.0000 N   0  0  0  0  0  0  0  0  0  0  0  0
   16.3312   -1.5549    0.0000 N   0  0  0  0  0  0  0  0  0  0  0  0
    6.0010   -2.0549    0.0000 N   0  0  0  0  0  0  0  0  0  0  0  0
   11.8312    1.0431    0.0000 C   0  0  1  0  0  0  0  0  0  0  0  0
   12.3312    0.1771    0.0000 C   0  0  1  0  0  0  0  0  0  0  0  0
   10.8312   -0.6889    0.0000 C   0  0  1  0  0  0  0  0  0  0  0  0
   11.8312   -0.6889    0.0000 C   0  0  2  0  0  0  0  0  0  0  0  0
   10.3312    0.1771    0.0000 C   0  0  2  0  0  0  0  0  0  0  0  0
   10.8312    1.0431    0.0000 C   0  0  0  0  0  0  0  0  0  0  0  0
   12.3312    3.6412    0.0000 C   0  0  0  0  0  0  0  0  0  0  0  0
   13.1972    3.1412    0.0000 C   0  0  0  0  0  0  0  0  0  0  0  0
   12.8312    4.5072    0.0000 C   0  0  0  0  0  0  0  0  0  0  0  0
   13.6972    4.0072    0.0000 C   0  0  0  0  0  0  0  0  0  0  0  0
   11.8312    2.7752    0.0000 C   0  0  0  0  0  0  0  0  0  0  0  0
   13.8312   -0.6889    0.0000 C   0  0  1  0  0  0  0  0  0  0  0  0
   14.8312   -0.6889    0.0000 C   0  0  1  0  0  0  0  0  0  0  0  0
   15.3312   -1.5549    0.0000 C   0  0  2  0  0  0  0  0  0  0  0  0
    9.4651   -2.0549    0.0000 C   0  0  1  0  0  0  0  0  0  0  0  0
   14.8312   -2.4210    0.0000 C   0  0  2  0  0  0  0  0  0  0  0  0
    9.4651   -3.0549    0.0000 C   0  0  1  0  0  0  0  0  0  0  0  0
   13.8312   -2.4210    0.0000 C   0  0  0  0  0  0  0  0  0  0  0  0
    8.5991   -3.5549    0.0000 C   0  0  2  0  0  0  0  0  0  0  0  0
    7.7331   -2.0549    0.0000 C   0  0  1  0  0  0  0  0  0  0  0  0
    7.7331   -3.0549    0.0000 C   0  0  1  0  0  0  0  0  0  0  0  0
   14.8312   -3.4210    0.0000 C   0  0  0  0  0  0  0  0  0  0  0  0
    6.8671   -1.5549    0.0000 C   0  0  0  0  0  0  0  0  0  0  0  0
   16.8312   -0.6889    0.0000 C   0  0  0  0  0  0  0  0  0  0  0  0
    5.1350   -1.5549    0.0000 C   0  0  0  0  0  0  0  0  0  0  0  0
    4.2690   -2.0549    0.0000 C   0  0  0  0  0  0  0  0  0  0  0  0
    3.4030   -1.5549    0.0000 C   0  0  0  0  0  0  0  0  0  0  0  0
   11.5212    1.5801    0.0000 H   0  0  0  0  0  0  0  0  0  0  0  0
   12.6412    0.7141    0.0000 H   0  0  0  0  0  0  0  0  0  0  0  0
   11.1412   -1.2259    0.0000 H   0  0  0  0  0  0  0  0  0  0  0  0
   12.4512   -0.6889    0.0000 H   0  0  0  0  0  0  0  0  0  0  0  0
   10.0212    0.7141    0.0000 H   0  0  0  0  0  0  0  0  0  0  0  0
   10.9388    1.6537    0.0000 H   0  0  0  0  0  0  0  0  0  0  0  0
   10.2486    1.2552    0.0000 H   0  0  0  0  0  0  0  0  0  0  0  0
   12.8872    2.6043    0.0000 H   0  0  0  0  0  0  0  0  0  0  0  0
   13.7341    2.8312    0.0000 H   0  0  0  0  0  0  0  0  0  0  0  0
   13.1412    5.0442    0.0000 H   0  0  0  0  0  0  0  0  0  0  0  0
   12.2942    4.8172    0.0000 H   0  0  0  0  0  0  0  0  0  0  0  0
   14.0746    3.5154    0.0000 H   0  0  0  0  0  0  0  0  0  0  0  0
   12.9512    1.9092    0.0000 H   0  0  0  0  0  0  0  0  0  0  0  0
   13.2112   -0.6889    0.0000 H   0  0  0  0  0  0  0  0  0  0  0  0
   15.4512   -0.6889    0.0000 H   0  0  0  0  0  0  0  0  0  0  0  0
   15.6412   -2.0919    0.0000 H   0  0  0  0  0  0  0  0  0  0  0  0
   10.0021   -2.3649    0.0000 H   0  0  0  0  0  0  0  0  0  0  0  0
    9.0212    0.7141    0.0000 H   0  0  0  0  0  0  0  0  0  0  0  0
    9.0212   -0.3598    0.0000 H   0  0  0  0  0  0  0  0  0  0  0  0
    9.4651   -3.6749    0.0000 H   0  0  0  0  0  0  0  0  0  0  0  0
   12.0212   -2.0919    0.0000 H   0  0  0  0  0  0  0  0  0  0  0  0
   13.2486   -2.6330    0.0000 H   0  0  0  0  0  0  0  0  0  0  0  0
   13.9388   -3.0315    0.0000 H   0  0  0  0  0  0  0  0  0  0  0  0
    9.1360   -3.8649    0.0000 H   0  0  0  0  0  0  0  0  0  0  0  0
    7.7331   -1.4349    0.0000 H   0  0  0  0  0  0  0  0  0  0  0  0
    7.7331   -3.6749    0.0000 H   0  0  0  0  0  0  0  0  0  0  0  0
   11.4651    4.7612    0.0000 H   0  0  0  0  0  0  0  0  0  0  0  0
   14.8236    4.8649    0.0000 H   0  0  0  0  0  0  0  0  0  0  0  0
   15.1015    3.8277    0.0000 H   0  0  0  0  0  0  0  0  0  0  0  0
   14.2112   -3.4210    0.0000 H   0  0  0  0  0  0  0  0  0  0  0  0
   14.8312   -4.0410    0.0000 H   0  0  0  0  0  0  0  0  0  0  0  0
   15.4512   -3.4210    0.0000 H   0  0  0  0  0  0  0  0  0  0  0  0
   16.6412   -2.0919    0.0000 H   0  0  0  0  0  0  0  0  0  0  0  0
    7.2656   -1.0800    0.0000 H   0  0  0  0  0  0  0  0  0  0  0  0
    6.4685   -1.0800    0.0000 H   0  0  0  0  0  0  0  0  0  0  0  0
   15.0212    0.7141    0.0000 H   0  0  0  0  0  0  0  0  0  0  0  0
   15.6972   -3.5410    0.0000 H   0  0  0  0  0  0  0  0  0  0  0  0
   10.8681   -3.2449    0.0000 H   0  0  0  0  0  0  0  0  0  0  0  0
    9.1360   -4.8649    0.0000 H   0  0  0  0  0  0  0  0  0  0  0  0
   17.3681   -0.9989    0.0000 H   0  0  0  0  0  0  0  0  0  0  0  0
   17.1412   -0.1520    0.0000 H   0  0  0  0  0  0  0  0  0  0  0  0
   16.2942   -0.3789    0.0000 H   0  0  0  0  0  0  0  0  0  0  0  0
    6.8671   -4.1749    0.0000 H   0  0  0  0  0  0  0  0  0  0  0  0
    6.0010   -2.6749    0.0000 H   0  0  0  0  0  0  0  0  0  0  0  0
    5.5335   -1.0800    0.0000 H   0  0  0  0  0  0  0  0  0  0  0  0
    4.7365   -1.0800    0.0000 H   0  0  0  0  0  0  0  0  0  0  0  0
    3.8705   -2.5299    0.0000 H   0  0  0  0  0  0  0  0  0  0  0  0
    4.6675   -2.5299    0.0000 H   0  0  0  0  0  0  0  0  0  0  0  0
    3.8015   -1.0800    0.0000 H   0  0  0  0  0  0  0  0  0  0  0  0
    3.0044   -1.0800    0.0000 H   0  0  0  0  0  0  0  0  0  0  0  0
    2.0000   -1.7449    0.0000 H   0  0  0  0  0  0  0  0  0  0  0  0
 20  1  1  6  0  0  0
 30  1  1  6  0  0  0
 21  2  1  6  0  0  0
 33  2  1  6  0  0  0
 22  3  1  1  0  0  0
  3 66  1  0  0  0  0
  4 30  1  0  0  0  0
  4 36  1  0  0  0  0
  5 25  1  0  0  0  0
  5 72  1  0  0  0  0
  6 33  1  0  0  0  0
  6 38  1  0  0  0  0
  7 29  2  0  0  0  0
 31  8  1  6  0  0  0
  8 81  1  0  0  0  0
 34  9  1  1  0  0  0
  9 82  1  0  0  0  0
 35 10  1  6  0  0  0
 10 83  1  0  0  0  0
 37 11  1  1  0  0  0
 11 84  1  0  0  0  0
 39 12  1  6  0  0  0
 12 88  1  0  0  0  0
 13 45  1  0  0  0  0
 13 96  1  0  0  0  0
 19 14  1  1  0  0  0
 14 29  1  0  0  0  0
 14 58  1  0  0  0  0
 23 15  1  1  0  0  0
 15 63  1  0  0  0  0
 15 64  1  0  0  0  0
 16 28  1  0  0  0  0
 16 73  1  0  0  0  0
 16 74  1  0  0  0  0
 32 17  1  1  0  0  0
 17 42  1  0  0  0  0
 17 78  1  0  0  0  0
 18 41  1  0  0  0  0
 18 43  1  0  0  0  0
 18 89  1  0  0  0  0
 19 20  1  0  0  0  0
 19 24  1  0  0  0  0
 19 46  1  0  0  0  0
 20 22  1  0  0  0  0
 20 47  1  0  0  0  0
 21 22  1  0  0  0  0
 21 23  1  0  0  0  0
 21 48  1  0  0  0  0
 22 49  1  0  0  0  0
 23 24  1  0  0  0  0
 23 50  1  0  0  0  0
 24 51  1  0  0  0  0
 24 52  1  0  0  0  0
 25 26  1  0  0  0  0
 25 27  1  0  0  0  0
 25 29  1  0  0  0  0
 26 28  1  0  0  0  0
 26 53  1  0  0  0  0
 26 54  1  0  0  0  0
 27 28  1  0  0  0  0
 27 55  1  0  0  0  0
 27 56  1  0  0  0  0
 28 57  1  0  0  0  0
 30 31  1  0  0  0  0
 30 59  1  0  0  0  0
 31 32  1  0  0  0  0
 31 60  1  0  0  0  0
 32 34  1  0  0  0  0
 32 61  1  0  0  0  0
 33 35  1  0  0  0  0
 33 62  1  0  0  0  0
 34 36  1  0  0  0  0
 34 40  1  0  0  0  0
 35 37  1  0  0  0  0
 35 65  1  0  0  0  0
 36 67  1  0  0  0  0
 36 68  1  0  0  0  0
 37 39  1  0  0  0  0
 37 69  1  0  0  0  0
 38 39  1  0  0  0  0
 38 41  1  1  0  0  0
 38 70  1  0  0  0  0
 39 71  1  0  0  0  0
 40 75  1  0  0  0  0
 40 76  1  0  0  0  0
 40 77  1  0  0  0  0
 41 79  1  0  0  0  0
 41 80  1  0  0  0  0
 42 85  1  0  0  0  0
 42 86  1  0  0  0  0
 42 87  1  0  0  0  0
 43 44  1  0  0  0  0
 43 90  1  0  0  0  0
 43 91  1  0  0  0  0
 44 45  1  0  0  0  0
 44 92  1  0  0  0  0
 44 93  1  0  0  0  0
 45 94  1  0  0  0  0
 45 95  1  0  0  0  0
M  END
> <PUBCHEM_COMPOUND_CID>
49819184

> <PUBCHEM_COMPOUND_CANONICALIZED>
1

> <PUBCHEM_CACTVS_COMPLEXITY>
981

> <PUBCHEM_CACTVS_HBOND_ACCEPTOR>
17

> <PUBCHEM_CACTVS_HBOND_DONOR>
13

> <PUBCHEM_CACTVS_ROTATABLE_BOND>
12

> <PUBCHEM_CACTVS_SUBSKEYS>
AAADcfB7vAAAAAAAAAAAAAAAAABgAAAAAAA0SIAAAAAAAAAAAAAAHgAQCAAADHzxgAcCCALABgAIAAEQEAIAAAAAAAAAAIFIAAATEBIAwAAnQAAHFgCXAAH8cA8MAAAAAAAAAAAAgAAUCACgAAAAAAAAAA==

> <PUBCHEM_IUPAC_OPENEYE_NAME>
3-amino-N-[(1R,2S,3S,4R,5S)-5-amino-2-[(2R,3R,4R,5R)-3,5-dihydroxy-5-methyl-4-(methylamino)tetrahydropyran-2-yl]oxy-3-hydroxy-4-[(2R,3R,4S,5S,6R)-3,4,5-trihydroxy-6-[(3-hydroxypropylamino)methyl]tetrahydropyran-2-yl]oxy-cyclohexyl]-1-hydroxy-cyclobutanecarboxamide

> <PUBCHEM_IUPAC_CAS_NAME>
3-amino-N-[(1R,2S,3S,4R,5S)-5-amino-2-[[(2R,3R,4R,5R)-3,5-dihydroxy-5-methyl-4-(methylamino)-2-oxanyl]oxy]-3-hydroxy-4-[[(2R,3R,4S,5S,6R)-3,4,5-trihydroxy-6-[(3-hydroxypropylamino)methyl]-2-oxanyl]oxy]cyclohexyl]-1-hydroxy-1-cyclobutanecarboxamide

> <PUBCHEM_IUPAC_NAME_MARKUP>
3-amino-<I>N</I>-[(1<I>R</I>,2<I>S</I>,3<I>S</I>,4<I>R</I>,5<I>S</I>)-5-amino-2-[(2<I>R</I>,3<I>R</I>,4<I>R</I>,5<I>R</I>)-3,5-dihydroxy-5-methyl-4-(methylamino)oxan-2-yl]oxy-3-hydroxy-4-[(2<I>R</I>,3<I>R</I>,4<I>S</I>,5<I>S</I>,6<I>R</I>)-3,4,5-trihydroxy-6-[(3-hydroxypropylamino)methyl]oxan-2-yl]oxycyclohexyl]-1-hydroxycyclobutane-1-carboxamide

> <PUBCHEM_IUPAC_NAME>
3-amino-N-[(1R,2S,3S,4R,5S)-5-amino-2-[(2R,3R,4R,5R)-3,5-dihydroxy-5-methyl-4-(methylamino)oxan-2-yl]oxy-3-hydroxy-4-[(2R,3R,4S,5S,6R)-3,4,5-trihydroxy-6-[(3-hydroxypropylamino)methyl]oxan-2-yl]oxycyclohexyl]-1-hydroxycyclobutane-1-carboxamide

> <PUBCHEM_IUPAC_SYSTEMATIC_NAME>
3-azanyl-N-[(1R,2S,3S,4R,5S)-5-azanyl-2-[(2R,3R,4R,5R)-5-methyl-4-(methylamino)-3,5-bis(oxidanyl)oxan-2-yl]oxy-3-oxidanyl-4-[(2R,3R,4S,5S,6R)-3,4,5-tris(oxidanyl)-6-[(3-oxidanylpropylamino)methyl]oxan-2-yl]oxy-cyclohexyl]-1-oxidanyl-cyclobutane-1-carboxamide

> <PUBCHEM_IUPAC_TRADITIONAL_NAME>
3-amino-N-[(1R,2S,3S,4R,5S)-5-amino-2-[(2R,3R,4R,5R)-3,5-dihydroxy-5-methyl-4-(methylamino)tetrahydropyran-2-yl]oxy-3-hydroxy-4-[(2R,3R,4S,5S,6R)-3,4,5-trihydroxy-6-[(3-hydroxypropylamino)methyl]tetrahydropyran-2-yl]oxy-cyclohexyl]-1-hydroxy-cyclobutanecarboxamide

> <PUBCHEM_IUPAC_INCHI>
InChI=1S/C27H51N5O13/c1-26(40)10-42-23(19(38)22(26)30-2)45-21-13(32-25(39)27(41)7-11(28)8-27)6-12(29)20(18(21)37)44-24-17(36)16(35)15(34)14(43-24)9-31-4-3-5-33/h11-24,30-31,33-38,40-41H,3-10,28-29H2,1-2H3,(H,32,39)/t11?,12-,13+,14+,15+,16-,17+,18-,19+,20+,21-,22+,23+,24+,26-,27?/m0/s1

> <PUBCHEM_IUPAC_INCHIKEY>
VLYSBLOTEYNUAS-GGMTYAEZSA-N

> <PUBCHEM_XLOGP3_AA>
-6.9

> <PUBCHEM_EXACT_MASS>
653.34833670

> <PUBCHEM_MOLECULAR_FORMULA>
C27H51N5O13

> <PUBCHEM_MOLECULAR_WEIGHT>
653.7

> <PUBCHEM_OPENEYE_CAN_SMILES>
CC1(COC(C(C1NC)O)OC2C(CC(C(C2O)OC3C(C(C(C(O3)CNCCCO)O)O)O)N)NC(=O)C4(CC(C4)N)O)O

> <PUBCHEM_OPENEYE_ISO_SMILES>
C[C@@]1(CO[C@@H]([C@@H]([C@H]1NC)O)O[C@H]2[C@@H](C[C@@H]([C@H]([C@@H]2O)O[C@@H]3[C@@H]([C@H]([C@@H]([C@H](O3)CNCCCO)O)O)O)N)NC(=O)C4(CC(C4)N)O)O

> <PUBCHEM_CACTVS_TPSA>
304

> <PUBCHEM_MONOISOTOPIC_WEIGHT>
653.34833670

> <PUBCHEM_TOTAL_CHARGE>
0

> <PUBCHEM_HEAVY_ATOM_COUNT>
45

> <PUBCHEM_ATOM_DEF_STEREO_COUNT>
14

> <PUBCHEM_ATOM_UDEF_STEREO_COUNT>
0

> <PUBCHEM_BOND_DEF_STEREO_COUNT>
0

> <PUBCHEM_BOND_UDEF_STEREO_COUNT>
0

> <PUBCHEM_ISOTOPIC_ATOM_COUNT>
0

> <PUBCHEM_COMPONENT_COUNT>
1

> <PUBCHEM_CACTVS_TAUTO_COUNT>
-1

> <PUBCHEM_COORDINATE_TYPE>
1
5
255

> <PUBCHEM_BONDANNOTATIONS>
20  1  6
30  1  6
35  10  6
37  11  5
39  12  6
19  14  5
23  15  5
32  17  5
21  2  6
33  2  6
22  3  5
38  41  5
31  8  6
34  9  5

$$$$
