 
  -OEChem-10192104422D

103106  0     1  0  0  0  0  0999 V2000
    8.9282    0.9794    0.0000 O   0  0  0  0  0  0  0  0  0  0  0  0
   10.8978    1.3267    0.0000 O   0  0  0  0  0  0  0  0  0  0  0  0
    9.9543    3.7985    0.0000 O   0  0  0  0  0  0  0  0  0  0  0  0
    7.1962    0.9794    0.0000 O   0  0  0  0  0  0  0  0  0  0  0  0
    8.9282   -1.0206    0.0000 O   0  0  0  0  0  0  0  0  0  0  0  0
   12.2246    2.4400    0.0000 O   0  0  0  0  0  0  0  0  0  0  0  0
    8.3267    4.3909    0.0000 O   0  0  0  0  0  0  0  0  0  0  0  0
    8.0622   -2.5206    0.0000 O   0  0  0  0  0  0  0  0  0  0  0  0
    7.1962   -2.0206    0.0000 O   0  0  0  0  0  0  0  0  0  0  0  0
    5.4641   -1.0206    0.0000 O   0  0  0  0  0  0  0  0  0  0  0  0
   12.1834   -0.2054    0.0000 O   0  0  0  0  0  0  0  0  0  0  0  0
   11.9239    4.1458    0.0000 O   0  0  0  0  0  0  0  0  0  0  0  0
   14.1530    0.1419    0.0000 O   0  0  0  0  0  0  0  0  0  0  0  0
   10.6603   -2.0206    0.0000 O   0  0  0  0  0  0  0  0  0  0  0  0
   14.8370    2.0213    0.0000 O   0  0  0  0  0  0  0  0  0  0  0  0
   10.6603   -4.0206    0.0000 O   0  0  0  0  0  0  0  0  0  0  0  0
    8.9282   -5.0206    0.0000 O   0  0  0  0  0  0  0  0  0  0  0  0
    7.3419    4.2172    0.0000 O   0  0  0  0  0  0  0  0  0  0  0  0
    3.7320    1.9794    0.0000 O   0  0  0  0  0  0  0  0  0  0  0  0
    7.6426    2.5115    0.0000 N   0  0  0  0  0  0  0  0  0  0  0  0
    4.5981    0.4794    0.0000 N   0  0  0  0  0  0  0  0  0  0  0  0
    9.2702    1.9191    0.0000 C   0  0  1  0  0  0  0  0  0  0  0  0
   10.2550    2.0928    0.0000 C   0  0  1  0  0  0  0  0  0  0  0  0
    8.6274    2.6852    0.0000 C   0  0  2  0  0  0  0  0  0  0  0  0
    8.0622   -0.5206    0.0000 C   0  0  1  0  0  0  0  0  0  0  0  0
    8.0622    0.4794    0.0000 C   0  0  2  0  0  0  0  0  0  0  0  0
   10.5971    3.0324    0.0000 C   0  0  1  0  0  0  0  0  0  0  0  0
    7.1962   -1.0206    0.0000 C   0  0  2  0  0  0  0  0  0  0  0  0
    8.9695    3.6248    0.0000 C   0  0  1  0  0  0  0  0  0  0  0  0
    6.3301   -0.5206    0.0000 C   0  0  2  0  0  0  0  0  0  0  0  0
    6.3301    0.4794    0.0000 C   0  0  1  0  0  0  0  0  0  0  0  0
   11.8826    1.5004    0.0000 C   0  0  2  0  0  0  0  0  0  0  0  0
    8.9282   -2.0206    0.0000 C   0  0  2  0  0  0  0  0  0  0  0  0
   12.5254    0.7343    0.0000 C   0  0  2  0  0  0  0  0  0  0  0  0
   11.5819    3.2061    0.0000 C   0  0  0  0  0  0  0  0  0  0  0  0
   13.5102    0.9080    0.0000 C   0  0  1  0  0  0  0  0  0  0  0  0
    9.7942   -2.5206    0.0000 C   0  0  2  0  0  0  0  0  0  0  0  0
    5.4641    0.9794    0.0000 C   0  0  0  0  0  0  0  0  0  0  0  0
   13.8522    1.8477    0.0000 C   0  0  1  0  0  0  0  0  0  0  0  0
   13.2095    2.6137    0.0000 C   0  0  2  0  0  0  0  0  0  0  0  0
    9.7942   -3.5206    0.0000 C   0  0  1  0  0  0  0  0  0  0  0  0
    8.9282   -4.0206    0.0000 C   0  0  1  0  0  0  0  0  0  0  0  0
    8.0622   -3.5206    0.0000 C   0  0  2  0  0  0  0  0  0  0  0  0
    6.9998    3.2776    0.0000 C   0  0  0  0  0  0  0  0  0  0  0  0
   13.5515    3.5534    0.0000 C   0  0  0  0  0  0  0  0  0  0  0  0
    7.1962   -4.0206    0.0000 C   0  0  0  0  0  0  0  0  0  0  0  0
    8.6687    5.3306    0.0000 C   0  0  0  0  0  0  0  0  0  0  0  0
    6.0150    3.1039    0.0000 C   0  0  0  0  0  0  0  0  0  0  0  0
    3.7320    0.9794    0.0000 C   0  0  0  0  0  0  0  0  0  0  0  0
    2.8660    0.4794    0.0000 C   0  0  0  0  0  0  0  0  0  0  0  0
    2.0000    0.9794    0.0000 C   0  0  0  0  0  0  0  0  0  0  0  0
    9.6688    1.4442    0.0000 H   0  0  0  0  0  0  0  0  0  0  0  0
   10.8656    2.2004    0.0000 H   0  0  0  0  0  0  0  0  0  0  0  0
    8.4154    2.1025    0.0000 H   0  0  0  0  0  0  0  0  0  0  0  0
    8.0622   -1.1406    0.0000 H   0  0  0  0  0  0  0  0  0  0  0  0
    8.0622    1.0994    0.0000 H   0  0  0  0  0  0  0  0  0  0  0  0
   10.8091    3.6151    0.0000 H   0  0  0  0  0  0  0  0  0  0  0  0
    6.6592   -1.3306    0.0000 H   0  0  0  0  0  0  0  0  0  0  0  0
    8.3589    3.5172    0.0000 H   0  0  0  0  0  0  0  0  0  0  0  0
    6.3301   -1.1406    0.0000 H   0  0  0  0  0  0  0  0  0  0  0  0
    6.3301    1.0994    0.0000 H   0  0  0  0  0  0  0  0  0  0  0  0
   11.6706    0.9178    0.0000 H   0  0  0  0  0  0  0  0  0  0  0  0
    9.4651   -1.7106    0.0000 H   0  0  0  0  0  0  0  0  0  0  0  0
   12.9239    0.2594    0.0000 H   0  0  0  0  0  0  0  0  0  0  0  0
   11.5819    2.5861    0.0000 H   0  0  0  0  0  0  0  0  0  0  0  0
   12.1924    3.0984    0.0000 H   0  0  0  0  0  0  0  0  0  0  0  0
    7.4306    1.9289    0.0000 H   0  0  0  0  0  0  0  0  0  0  0  0
   14.1208    1.0156    0.0000 H   0  0  0  0  0  0  0  0  0  0  0  0
   10.3312   -2.8306    0.0000 H   0  0  0  0  0  0  0  0  0  0  0  0
    5.8626    1.4544    0.0000 H   0  0  0  0  0  0  0  0  0  0  0  0
    5.0656    1.4544    0.0000 H   0  0  0  0  0  0  0  0  0  0  0  0
   14.2508    1.3727    0.0000 H   0  0  0  0  0  0  0  0  0  0  0  0
   12.8109    3.0886    0.0000 H   0  0  0  0  0  0  0  0  0  0  0  0
   10.3312   -3.2106    0.0000 H   0  0  0  0  0  0  0  0  0  0  0  0
    9.4651   -4.3306    0.0000 H   0  0  0  0  0  0  0  0  0  0  0  0
    7.5252   -3.2106    0.0000 H   0  0  0  0  0  0  0  0  0  0  0  0
    6.6592   -2.3306    0.0000 H   0  0  0  0  0  0  0  0  0  0  0  0
    5.4641   -1.6406    0.0000 H   0  0  0  0  0  0  0  0  0  0  0  0
   14.1341    3.3413    0.0000 H   0  0  0  0  0  0  0  0  0  0  0  0
   13.7635    4.1360    0.0000 H   0  0  0  0  0  0  0  0  0  0  0  0
   12.9689    3.7654    0.0000 H   0  0  0  0  0  0  0  0  0  0  0  0
    4.5981   -0.1406    0.0000 H   0  0  0  0  0  0  0  0  0  0  0  0
    6.8862   -3.4836    0.0000 H   0  0  0  0  0  0  0  0  0  0  0  0
    6.6592   -4.3306    0.0000 H   0  0  0  0  0  0  0  0  0  0  0  0
    7.5062   -4.5575    0.0000 H   0  0  0  0  0  0  0  0  0  0  0  0
   12.5819   -0.6803    0.0000 H   0  0  0  0  0  0  0  0  0  0  0  0
   11.5254    4.6207    0.0000 H   0  0  0  0  0  0  0  0  0  0  0  0
    9.2513    5.1185    0.0000 H   0  0  0  0  0  0  0  0  0  0  0  0
    8.8807    5.9132    0.0000 H   0  0  0  0  0  0  0  0  0  0  0  0
    8.0861    5.5426    0.0000 H   0  0  0  0  0  0  0  0  0  0  0  0
   14.7636    0.2496    0.0000 H   0  0  0  0  0  0  0  0  0  0  0  0
   11.1972   -2.3306    0.0000 H   0  0  0  0  0  0  0  0  0  0  0  0
   15.0491    2.6039    0.0000 H   0  0  0  0  0  0  0  0  0  0  0  0
   10.6603   -4.6406    0.0000 H   0  0  0  0  0  0  0  0  0  0  0  0
    8.3913   -5.3306    0.0000 H   0  0  0  0  0  0  0  0  0  0  0  0
    5.9074    3.7145    0.0000 H   0  0  0  0  0  0  0  0  0  0  0  0
    5.4044    2.9962    0.0000 H   0  0  0  0  0  0  0  0  0  0  0  0
    6.1227    2.4933    0.0000 H   0  0  0  0  0  0  0  0  0  0  0  0
    2.4675    0.0045    0.0000 H   0  0  0  0  0  0  0  0  0  0  0  0
    3.2646    0.0045    0.0000 H   0  0  0  0  0  0  0  0  0  0  0  0
    2.3100    1.5164    0.0000 H   0  0  0  0  0  0  0  0  0  0  0  0
    1.4631    1.2894    0.0000 H   0  0  0  0  0  0  0  0  0  0  0  0
    1.6900    0.4425    0.0000 H   0  0  0  0  0  0  0  0  0  0  0  0
 22  1  1  6  0  0  0
 26  1  1  1  0  0  0
 23  2  1  1  0  0  0
 32  2  1  6  0  0  0
  3 27  1  0  0  0  0
  3 29  1  0  0  0  0
  4 26  1  0  0  0  0
  4 31  1  0  0  0  0
 25  5  1  6  0  0  0
 33  5  1  1  0  0  0
  6 32  1  0  0  0  0
  6 40  1  0  0  0  0
 29  7  1  6  0  0  0
  7 47  1  0  0  0  0
  8 33  1  0  0  0  0
  8 43  1  0  0  0  0
 28  9  1  1  0  0  0
  9 77  1  0  0  0  0
 30 10  1  1  0  0  0
 10 78  1  0  0  0  0
 34 11  1  6  0  0  0
 11 86  1  0  0  0  0
 12 35  1  0  0  0  0
 12 87  1  0  0  0  0
 36 13  1  1  0  0  0
 13 91  1  0  0  0  0
 37 14  1  1  0  0  0
 14 92  1  0  0  0  0
 39 15  1  1  0  0  0
 15 93  1  0  0  0  0
 41 16  1  6  0  0  0
 16 94  1  0  0  0  0
 42 17  1  6  0  0  0
 17 95  1  0  0  0  0
 18 44  2  0  0  0  0
 19 49  2  0  0  0  0
 24 20  1  1  0  0  0
 20 44  1  0  0  0  0
 20 67  1  0  0  0  0
 21 38  1  0  0  0  0
 21 49  1  0  0  0  0
 21 82  1  0  0  0  0
 22 23  1  0  0  0  0
 22 24  1  0  0  0  0
 22 52  1  0  0  0  0
 23 27  1  0  0  0  0
 23 53  1  0  0  0  0
 24 29  1  0  0  0  0
 24 54  1  0  0  0  0
 25 26  1  0  0  0  0
 25 28  1  0  0  0  0
 25 55  1  0  0  0  0
 26 56  1  0  0  0  0
 27 35  1  6  0  0  0
 27 57  1  0  0  0  0
 28 30  1  0  0  0  0
 28 58  1  0  0  0  0
 29 59  1  0  0  0  0
 30 31  1  0  0  0  0
 30 60  1  0  0  0  0
 31 38  1  1  0  0  0
 31 61  1  0  0  0  0
 32 34  1  0  0  0  0
 32 62  1  0  0  0  0
 33 37  1  0  0  0  0
 33 63  1  0  0  0  0
 34 36  1  0  0  0  0
 34 64  1  0  0  0  0
 35 65  1  0  0  0  0
 35 66  1  0  0  0  0
 36 39  1  0  0  0  0
 36 68  1  0  0  0  0
 37 41  1  0  0  0  0
 37 69  1  0  0  0  0
 38 70  1  0  0  0  0
 38 71  1  0  0  0  0
 39 40  1  0  0  0  0
 39 72  1  0  0  0  0
 40 45  1  1  0  0  0
 40 73  1  0  0  0  0
 41 42  1  0  0  0  0
 41 74  1  0  0  0  0
 42 43  1  0  0  0  0
 42 75  1  0  0  0  0
 43 46  1  6  0  0  0
 43 76  1  0  0  0  0
 44 48  1  0  0  0  0
 45 79  1  0  0  0  0
 45 80  1  0  0  0  0
 45 81  1  0  0  0  0
 46 83  1  0  0  0  0
 46 84  1  0  0  0  0
 46 85  1  0  0  0  0
 47 88  1  0  0  0  0
 47 89  1  0  0  0  0
 47 90  1  0  0  0  0
 48 96  1  0  0  0  0
 48 97  1  0  0  0  0
 48 98  1  0  0  0  0
 49 50  1  0  0  0  0
 50 51  1  0  0  0  0
 50 99  1  0  0  0  0
 50100  1  0  0  0  0
 51101  1  0  0  0  0
 51102  1  0  0  0  0
 51103  1  0  0  0  0
M  END
> <PUBCHEM_COMPOUND_CID>
10985511

> <PUBCHEM_COMPOUND_CANONICALIZED>
1

> <PUBCHEM_CACTVS_COMPLEXITY>
1140

> <PUBCHEM_CACTVS_HBOND_ACCEPTOR>
19

> <PUBCHEM_CACTVS_HBOND_DONOR>
11

> <PUBCHEM_CACTVS_ROTATABLE_BOND>
12

> <PUBCHEM_CACTVS_SUBSKEYS>
AAADcfB7PgAAAAAAAAAAAAAAAAAAAAAAAAAkSJEgAAAAAAAAAAAAHgAQCAAACDzxgAcCCALABgAIAAEQEAAAAAAAAAAAAIEIAAATEAIAgAAnQAAHFgCXAAHwcA8AAAAAAAAAAAAAAAAAAAAAAAAAAAAAAA==

> <PUBCHEM_IUPAC_OPENEYE_NAME>
N-[[(2R,3R,4S,5R,6S)-6-[(2R,3S,4R,5R,6R)-5-acetamido-2-(hydroxymethyl)-6-methoxy-3-[(2S,3S,4R,5S,6S)-3,4,5-trihydroxy-6-methyl-tetrahydropyran-2-yl]oxy-tetrahydropyran-4-yl]oxy-3,4-dihydroxy-5-[(2S,3S,4R,5S,6S)-3,4,5-trihydroxy-6-methyl-tetrahydropyran-2-yl]oxy-tetrahydropyran-2-yl]methyl]propanamide

> <PUBCHEM_IUPAC_CAS_NAME>
N-[[(2R,3R,4S,5R,6S)-6-[[(2R,3S,4R,5R,6R)-5-acetamido-2-(hydroxymethyl)-6-methoxy-3-[[(2S,3S,4R,5S,6S)-3,4,5-trihydroxy-6-methyl-2-oxanyl]oxy]-4-oxanyl]oxy]-3,4-dihydroxy-5-[[(2S,3S,4R,5S,6S)-3,4,5-trihydroxy-6-methyl-2-oxanyl]oxy]-2-oxanyl]methyl]propanamide

> <PUBCHEM_IUPAC_NAME_MARKUP>
<I>N</I>-[[(2<I>R</I>,3<I>R</I>,4<I>S</I>,5<I>R</I>,6<I>S</I>)-6-[(2<I>R</I>,3<I>S</I>,4<I>R</I>,5<I>R</I>,6<I>R</I>)-5-acetamido-2-(hydroxymethyl)-6-methoxy-3-[(2<I>S</I>,3<I>S</I>,4<I>R</I>,5<I>S</I>,6<I>S</I>)-3,4,5-trihydroxy-6-methyloxan-2-yl]oxyoxan-4-yl]oxy-3,4-dihydroxy-5-[(2<I>S</I>,3<I>S</I>,4<I>R</I>,5<I>S</I>,6<I>S</I>)-3,4,5-trihydroxy-6-methyloxan-2-yl]oxyoxan-2-yl]methyl]propanamide

> <PUBCHEM_IUPAC_NAME>
N-[[(2R,3R,4S,5R,6S)-6-[(2R,3S,4R,5R,6R)-5-acetamido-2-(hydroxymethyl)-6-methoxy-3-[(2S,3S,4R,5S,6S)-3,4,5-trihydroxy-6-methyloxan-2-yl]oxyoxan-4-yl]oxy-3,4-dihydroxy-5-[(2S,3S,4R,5S,6S)-3,4,5-trihydroxy-6-methyloxan-2-yl]oxyoxan-2-yl]methyl]propanamide

> <PUBCHEM_IUPAC_SYSTEMATIC_NAME>
N-[[(2R,3R,4S,5R,6S)-6-[(2R,3S,4R,5R,6R)-5-acetamido-2-(hydroxymethyl)-6-methoxy-3-[(2S,3S,4R,5S,6S)-6-methyl-3,4,5-tris(oxidanyl)oxan-2-yl]oxy-oxan-4-yl]oxy-5-[(2S,3S,4R,5S,6S)-6-methyl-3,4,5-tris(oxidanyl)oxan-2-yl]oxy-3,4-bis(oxidanyl)oxan-2-yl]methyl]propanamide

> <PUBCHEM_IUPAC_TRADITIONAL_NAME>
N-[[(2R,3R,4S,5R,6S)-6-[(2R,3R,4R,5S,6R)-3-acetamido-2-methoxy-6-methylol-5-[(2S,3S,4R,5S,6S)-3,4,5-trihydroxy-6-methyl-tetrahydropyran-2-yl]oxy-tetrahydropyran-4-yl]oxy-3,4-dihydroxy-5-[(2S,3S,4R,5S,6S)-3,4,5-trihydroxy-6-methyl-tetrahydropyran-2-yl]oxy-tetrahydropyran-2-yl]methyl]propionamide

> <PUBCHEM_IUPAC_INCHI>
InChI=1S/C30H52N2O19/c1-6-14(35)31-7-12-18(38)21(41)26(51-29-23(43)20(40)17(37)10(3)46-29)30(47-12)50-25-15(32-11(4)34)27(44-5)48-13(8-33)24(25)49-28-22(42)19(39)16(36)9(2)45-28/h9-10,12-13,15-30,33,36-43H,6-8H2,1-5H3,(H,31,35)(H,32,34)/t9-,10-,12+,13+,15+,16+,17+,18-,19+,20+,21-,22-,23-,24+,25+,26+,27+,28-,29-,30-/m0/s1

> <PUBCHEM_IUPAC_INCHIKEY>
ASAHPDBAPRIFAN-CFPKJDCNSA-N

> <PUBCHEM_XLOGP3_AA>
-5.9

> <PUBCHEM_EXACT_MASS>
744.31642743

> <PUBCHEM_MOLECULAR_FORMULA>
C30H52N2O19

> <PUBCHEM_MOLECULAR_WEIGHT>
744.7

> <PUBCHEM_OPENEYE_CAN_SMILES>
CCC(=O)NCC1C(C(C(C(O1)OC2C(C(OC(C2OC3C(C(C(C(O3)C)O)O)O)CO)OC)NC(=O)C)OC4C(C(C(C(O4)C)O)O)O)O)O

> <PUBCHEM_OPENEYE_ISO_SMILES>
CCC(=O)NC[C@@H]1[C@@H]([C@@H]([C@H]([C@@H](O1)O[C@@H]2[C@H]([C@@H](O[C@@H]([C@H]2O[C@H]3[C@H]([C@@H]([C@@H]([C@@H](O3)C)O)O)O)CO)OC)NC(=O)C)O[C@H]4[C@H]([C@@H]([C@@H]([C@@H](O4)C)O)O)O)O)O

> <PUBCHEM_CACTVS_TPSA>
314

> <PUBCHEM_MONOISOTOPIC_WEIGHT>
744.31642743

> <PUBCHEM_TOTAL_CHARGE>
0

> <PUBCHEM_HEAVY_ATOM_COUNT>
51

> <PUBCHEM_ATOM_DEF_STEREO_COUNT>
20

> <PUBCHEM_ATOM_UDEF_STEREO_COUNT>
0

> <PUBCHEM_BOND_DEF_STEREO_COUNT>
0

> <PUBCHEM_BOND_UDEF_STEREO_COUNT>
0

> <PUBCHEM_ISOTOPIC_ATOM_COUNT>
0

> <PUBCHEM_COMPONENT_COUNT>
1

> <PUBCHEM_CACTVS_TAUTO_COUNT>
-1

> <PUBCHEM_COORDINATE_TYPE>
1
5
255

> <PUBCHEM_BONDANNOTATIONS>
22  1  6
26  1  5
30  10  5
34  11  6
36  13  5
37  14  5
39  15  5
41  16  6
42  17  6
23  2  5
32  2  6
24  20  5
27  35  6
31  38  5
40  45  5
43  46  6
25  5  6
33  5  5
29  7  6
28  9  5

$$$$
