 
  -OEChem-10192103422D

 18 18  0     0  0  0  0  0  0999 V2000
    4.5981    1.3450    0.0000 O   0  0  0  0  0  0  0  0  0  0  0  0
    2.0000   -0.1550    0.0000 O   0  5  0  0  0  0  0  0  0  0  0  0
    2.8660    1.3450    0.0000 O   0  0  0  0  0  0  0  0  0  0  0  0
    2.8660    0.3450    0.0000 N   0  3  0  0  0  0  0  0  0  0  0  0
    5.4641   -0.1550    0.0000 C   0  0  0  0  0  0  0  0  0  0  0  0
    4.5981    0.3450    0.0000 C   0  0  0  0  0  0  0  0  0  0  0  0
    3.7320   -0.1550    0.0000 C   0  0  0  0  0  0  0  0  0  0  0  0
    5.4641   -1.1550    0.0000 C   0  0  0  0  0  0  0  0  0  0  0  0
    3.7320   -1.1550    0.0000 C   0  0  0  0  0  0  0  0  0  0  0  0
    4.5981   -1.6550    0.0000 C   0  0  0  0  0  0  0  0  0  0  0  0
    6.3301    0.3450    0.0000 C   0  0  0  0  0  0  0  0  0  0  0  0
    6.0010   -1.4650    0.0000 H   0  0  0  0  0  0  0  0  0  0  0  0
    3.1951   -1.4650    0.0000 H   0  0  0  0  0  0  0  0  0  0  0  0
    4.5981   -2.2750    0.0000 H   0  0  0  0  0  0  0  0  0  0  0  0
    6.6401   -0.1919    0.0000 H   0  0  0  0  0  0  0  0  0  0  0  0
    6.8671    0.6550    0.0000 H   0  0  0  0  0  0  0  0  0  0  0  0
    6.0201    0.8819    0.0000 H   0  0  0  0  0  0  0  0  0  0  0  0
    5.1350    1.6550    0.0000 H   0  0  0  0  0  0  0  0  0  0  0  0
  1  6  1  0  0  0  0
  1 18  1  0  0  0  0
  2  4  1  0  0  0  0
  3  4  2  0  0  0  0
  4  7  1  0  0  0  0
  5  6  2  0  0  0  0
  5  8  1  0  0  0  0
  5 11  1  0  0  0  0
  6  7  1  0  0  0  0
  7  9  2  0  0  0  0
  8 10  2  0  0  0  0
  8 12  1  0  0  0  0
  9 10  1  0  0  0  0
  9 13  1  0  0  0  0
 10 14  1  0  0  0  0
 11 15  1  0  0  0  0
 11 16  1  0  0  0  0
 11 17  1  0  0  0  0
M  CHG  2   2  -1   4   1
M  END
> <PUBCHEM_COMPOUND_CID>
83103

> <PUBCHEM_COMPOUND_CANONICALIZED>
1

> <PUBCHEM_CACTVS_COMPLEXITY>
154

> <PUBCHEM_CACTVS_HBOND_ACCEPTOR>
3

> <PUBCHEM_CACTVS_HBOND_DONOR>
1

> <PUBCHEM_CACTVS_ROTATABLE_BOND>
0

> <PUBCHEM_CACTVS_SUBSKEYS>
AAADcYBiMAAAAAAAAAAAAAAAAAAAAAAAAAAwAAAAAAAAAAABAAAAHgAECAAADAyBmAAyxoAQQgCBAiRCQwCCAAAgIgAoiAAFbIoKJiKSkZOAcABkwFEI2AeQwCAOAAAAQAAIEAAAAACAABAgAAAAAAAAAA==

> <PUBCHEM_IUPAC_OPENEYE_NAME>
2-methyl-6-nitro-phenol

> <PUBCHEM_IUPAC_CAS_NAME>
2-methyl-6-nitrophenol

> <PUBCHEM_IUPAC_NAME_MARKUP>
2-methyl-6-nitrophenol

> <PUBCHEM_IUPAC_NAME>
2-methyl-6-nitrophenol

> <PUBCHEM_IUPAC_SYSTEMATIC_NAME>
2-methyl-6-nitro-phenol

> <PUBCHEM_IUPAC_TRADITIONAL_NAME>
2-methyl-6-nitro-phenol

> <PUBCHEM_IUPAC_INCHI>
InChI=1S/C7H7NO3/c1-5-3-2-4-6(7(5)9)8(10)11/h2-4,9H,1H3

> <PUBCHEM_IUPAC_INCHIKEY>
AQDKZPFDOWHRDZ-UHFFFAOYSA-N

> <PUBCHEM_XLOGP3>
2.6

> <PUBCHEM_EXACT_MASS>
153.042593085

> <PUBCHEM_MOLECULAR_FORMULA>
C7H7NO3

> <PUBCHEM_MOLECULAR_WEIGHT>
153.14

> <PUBCHEM_OPENEYE_CAN_SMILES>
CC1=C(C(=CC=C1)[N+](=O)[O-])O

> <PUBCHEM_OPENEYE_ISO_SMILES>
CC1=C(C(=CC=C1)[N+](=O)[O-])O

> <PUBCHEM_CACTVS_TPSA>
66

> <PUBCHEM_MONOISOTOPIC_WEIGHT>
153.042593085

> <PUBCHEM_TOTAL_CHARGE>
0

> <PUBCHEM_HEAVY_ATOM_COUNT>
11

> <PUBCHEM_ATOM_DEF_STEREO_COUNT>
0

> <PUBCHEM_ATOM_UDEF_STEREO_COUNT>
0

> <PUBCHEM_BOND_DEF_STEREO_COUNT>
0

> <PUBCHEM_BOND_UDEF_STEREO_COUNT>
0

> <PUBCHEM_ISOTOPIC_ATOM_COUNT>
0

> <PUBCHEM_COMPONENT_COUNT>
1

> <PUBCHEM_CACTVS_TAUTO_COUNT>
4

> <PUBCHEM_COORDINATE_TYPE>
1
5
255

> <PUBCHEM_BONDANNOTATIONS>
5  6  8
5  8  8
6  7  8
7  9  8
8  10  8
9  10  8

$$$$
