 
  -OEChem-10192104192D

 28 29  0     1  0  0  0  0  0999 V2000
    3.5888    2.0944    0.0000 O   0  0  0  0  0  0  0  0  0  0  0  0
    6.1057    2.0896    0.0000 O   0  0  0  0  0  0  0  0  0  0  0  0
    2.3100    0.3343    0.0000 O   0  0  0  0  0  0  0  0  0  0  0  0
    2.6106   -1.6336    0.0000 O   0  0  0  0  0  0  0  0  0  0  0  0
    4.2579   -2.1689    0.0000 O   0  0  0  0  0  0  0  0  0  0  0  0
    4.8488   -0.1657    0.0000 C   0  0  3  0  0  0  0  0  0  0  0  0
    4.8488    0.8343    0.0000 C   0  0  1  0  0  0  0  0  0  0  0  0
    3.8978   -0.4747    0.0000 C   0  0  1  0  0  0  0  0  0  0  0  0
    3.8978    1.1434    0.0000 C   0  0  2  0  0  0  0  0  0  0  0  0
    5.7951    1.1391    0.0000 C   0  0  3  0  0  0  0  0  0  0  0  0
    5.7951   -0.4704    0.0000 C   0  0  0  0  0  0  0  0  0  0  0  0
    3.3100    0.3343    0.0000 C   0  0  2  0  0  0  0  0  0  0  0  0
    6.3787    0.3343    0.0000 C   0  0  0  0  0  0  0  0  0  0  0  0
    3.5888   -1.4257    0.0000 C   0  0  0  0  0  0  0  0  0  0  0  0
    4.8496   -0.7857    0.0000 H   0  0  0  0  0  0  0  0  0  0  0  0
    4.8500    1.6843    0.0000 H   0  0  0  0  0  0  0  0  0  0  0  0
    3.2854   -0.5717    0.0000 H   0  0  0  0  0  0  0  0  0  0  0  0
    3.2854    1.2403    0.0000 H   0  0  0  0  0  0  0  0  0  0  0  0
    6.4075    1.2353    0.0000 H   0  0  0  0  0  0  0  0  0  0  0  0
    5.5440   -1.0373    0.0000 H   0  0  0  0  0  0  0  0  0  0  0  0
    6.3324   -0.7796    0.0000 H   0  0  0  0  0  0  0  0  0  0  0  0
    3.0285    0.8868    0.0000 H   0  0  0  0  0  0  0  0  0  0  0  0
    6.8395   -0.0804    0.0000 H   0  0  0  0  0  0  0  0  0  0  0  0
    6.8395    0.7491    0.0000 H   0  0  0  0  0  0  0  0  0  0  0  0
    2.9823    2.2233    0.0000 H   0  0  0  0  0  0  0  0  0  0  0  0
    6.7124    2.2174    0.0000 H   0  0  0  0  0  0  0  0  0  0  0  0
    2.0000    0.8713    0.0000 H   0  0  0  0  0  0  0  0  0  0  0  0
    2.4190   -2.2233    0.0000 H   0  0  0  0  0  0  0  0  0  0  0  0
  9  1  1  6  0  0  0
  1 25  1  0  0  0  0
  2 10  1  0  0  0  0
  2 26  1  0  0  0  0
 12  3  1  1  0  0  0
  3 27  1  0  0  0  0
  4 14  1  0  0  0  0
  4 28  1  0  0  0  0
  5 14  2  0  0  0  0
  6  7  1  0  0  0  0
  6  8  1  0  0  0  0
  6 11  1  0  0  0  0
  6 15  1  0  0  0  0
  7  9  1  0  0  0  0
  7 10  1  0  0  0  0
  7 16  1  6  0  0  0
  8 12  1  0  0  0  0
  8 14  1  6  0  0  0
  8 17  1  0  0  0  0
  9 12  1  0  0  0  0
  9 18  1  0  0  0  0
 10 13  1  0  0  0  0
 10 19  1  0  0  0  0
 11 13  1  0  0  0  0
 11 20  1  0  0  0  0
 11 21  1  0  0  0  0
 12 22  1  0  0  0  0
 13 23  1  0  0  0  0
 13 24  1  0  0  0  0
M  END
> <PUBCHEM_COMPOUND_CID>
123214532

> <PUBCHEM_COMPOUND_CANONICALIZED>
1

> <PUBCHEM_CACTVS_COMPLEXITY>
254

> <PUBCHEM_CACTVS_HBOND_ACCEPTOR>
5

> <PUBCHEM_CACTVS_HBOND_DONOR>
4

> <PUBCHEM_CACTVS_ROTATABLE_BOND>
1

> <PUBCHEM_CACTVS_SUBSKEYS>
AAADccBwOAAAAAAAAAAAAAAAAAAAAYMAAAAAAAAAAAAYAAAAAAAAGgAACAAADRSggAIACAAAAgAIAACQCAAAAAAAAAAAAAEAAAABEBYAAAAAQAAFIAABAAHK7PTOgAAAAAAAAAAAAAAAAAAAAYAADCAAAA==

> <PUBCHEM_IUPAC_OPENEYE_NAME>
(1S,2R,3R,3aR)-2,3,4-trihydroxy-1,2,3,3a,4,5,6,6a-octahydropentalene-1-carboxylic acid

> <PUBCHEM_IUPAC_CAS_NAME>
(1S,2R,3R,3aR)-2,3,4-trihydroxy-1,2,3,3a,4,5,6,6a-octahydropentalene-1-carboxylic acid

> <PUBCHEM_IUPAC_NAME_MARKUP>
(1<I>S</I>,2<I>R</I>,3<I>R</I>,3<I>a</I><I>R</I>)-2,3,4-trihydroxy-1,2,3,3<I>a</I>,4,5,6,6<I>a</I>-octahydropentalene-1-carboxylic acid

> <PUBCHEM_IUPAC_NAME>
(1S,2R,3R,3aR)-2,3,4-trihydroxy-1,2,3,3a,4,5,6,6a-octahydropentalene-1-carboxylic acid

> <PUBCHEM_IUPAC_SYSTEMATIC_NAME>
(1S,2R,3R,3aR)-2,3,4-tris(oxidanyl)-1,2,3,3a,4,5,6,6a-octahydropentalene-1-carboxylic acid

> <PUBCHEM_IUPAC_TRADITIONAL_NAME>
(1S,2R,3R,3aR)-2,3,4-trihydroxy-1,2,3,3a,4,5,6,6a-octahydropentalene-1-carboxylic acid

> <PUBCHEM_IUPAC_INCHI>
InChI=1S/C9H14O5/c10-4-2-1-3-5(4)7(11)8(12)6(3)9(13)14/h3-8,10-12H,1-2H2,(H,13,14)/t3?,4?,5-,6+,7-,8-/m1/s1

> <PUBCHEM_IUPAC_INCHIKEY>
BUYVSXNSLMIOHM-BMUOFLSDSA-N

> <PUBCHEM_XLOGP3_AA>
-0.8

> <PUBCHEM_EXACT_MASS>
202.08412354

> <PUBCHEM_MOLECULAR_FORMULA>
C9H14O5

> <PUBCHEM_MOLECULAR_WEIGHT>
202.20

> <PUBCHEM_OPENEYE_CAN_SMILES>
C1CC(C2C1C(C(C2O)O)C(=O)O)O

> <PUBCHEM_OPENEYE_ISO_SMILES>
C1CC([C@H]2C1[C@@H]([C@H]([C@@H]2O)O)C(=O)O)O

> <PUBCHEM_CACTVS_TPSA>
98

> <PUBCHEM_MONOISOTOPIC_WEIGHT>
202.08412354

> <PUBCHEM_TOTAL_CHARGE>
0

> <PUBCHEM_HEAVY_ATOM_COUNT>
14

> <PUBCHEM_ATOM_DEF_STEREO_COUNT>
4

> <PUBCHEM_ATOM_UDEF_STEREO_COUNT>
2

> <PUBCHEM_BOND_DEF_STEREO_COUNT>
0

> <PUBCHEM_BOND_UDEF_STEREO_COUNT>
0

> <PUBCHEM_ISOTOPIC_ATOM_COUNT>
0

> <PUBCHEM_COMPONENT_COUNT>
1

> <PUBCHEM_CACTVS_TAUTO_COUNT>
-1

> <PUBCHEM_COORDINATE_TYPE>
1
5
255

> <PUBCHEM_BONDANNOTATIONS>
9  1  6
10  2  3
12  3  5
6  11  3
7  16  6
8  14  6

$$$$
