 
  -OEChem-10192104102D

 44 45  0     0  0  0  0  0  0999 V2000
    4.5981    2.3170    0.0000 S   0  0  0  0  0  0  0  0  0  0  0  0
    4.5981   -1.6830    0.0000 S   0  0  0  0  0  0  0  0  0  0  0  0
    5.5981    2.3170    0.0000 O   0  0  0  0  0  0  0  0  0  0  0  0
    3.5981    2.3170    0.0000 O   0  0  0  0  0  0  0  0  0  0  0  0
    3.5981   -1.6830    0.0000 O   0  0  0  0  0  0  0  0  0  0  0  0
    5.5981   -1.6830    0.0000 O   0  0  0  0  0  0  0  0  0  0  0  0
    4.5981    3.3170    0.0000 N   0  0  0  0  0  0  0  0  0  0  0  0
    4.5981   -2.6830    0.0000 N   0  0  0  0  0  0  0  0  0  0  0  0
    5.4641    3.8170    0.0000 C   0  0  0  0  0  0  0  0  0  0  0  0
    6.4641    3.8170    0.0000 C   0  0  0  0  0  0  0  0  0  0  0  0
    5.9641    4.6830    0.0000 C   0  0  0  0  0  0  0  0  0  0  0  0
    4.5981    1.3170    0.0000 C   0  0  0  0  0  0  0  0  0  0  0  0
    3.7320   -3.1830    0.0000 C   0  0  0  0  0  0  0  0  0  0  0  0
    3.7320   -4.1830    0.0000 C   0  0  0  0  0  0  0  0  0  0  0  0
    2.8660   -2.6830    0.0000 C   0  0  0  0  0  0  0  0  0  0  0  0
    4.5981   -0.6830    0.0000 C   0  0  0  0  0  0  0  0  0  0  0  0
    5.4641    0.8170    0.0000 C   0  0  0  0  0  0  0  0  0  0  0  0
    3.7320    0.8170    0.0000 C   0  0  0  0  0  0  0  0  0  0  0  0
    5.4641   -0.1830    0.0000 C   0  0  0  0  0  0  0  0  0  0  0  0
    3.7320   -0.1830    0.0000 C   0  0  0  0  0  0  0  0  0  0  0  0
    2.8660   -4.6830    0.0000 C   0  0  0  0  0  0  0  0  0  0  0  0
    2.0000   -3.1830    0.0000 C   0  0  0  0  0  0  0  0  0  0  0  0
    5.0257    4.2554    0.0000 H   0  0  0  0  0  0  0  0  0  0  0  0
    6.5718    3.2064    0.0000 H   0  0  0  0  0  0  0  0  0  0  0  0
    7.0467    4.0290    0.0000 H   0  0  0  0  0  0  0  0  0  0  0  0
    6.4390    5.0815    0.0000 H   0  0  0  0  0  0  0  0  0  0  0  0
    5.4892    5.0815    0.0000 H   0  0  0  0  0  0  0  0  0  0  0  0
    4.0611    3.6270    0.0000 H   0  0  0  0  0  0  0  0  0  0  0  0
    3.7320   -2.5630    0.0000 H   0  0  0  0  0  0  0  0  0  0  0  0
    3.9441   -4.7656    0.0000 H   0  0  0  0  0  0  0  0  0  0  0  0
    4.3426   -4.0754    0.0000 H   0  0  0  0  0  0  0  0  0  0  0  0
    3.2646   -2.2081    0.0000 H   0  0  0  0  0  0  0  0  0  0  0  0
    2.4675   -2.2081    0.0000 H   0  0  0  0  0  0  0  0  0  0  0  0
    5.1350   -2.9930    0.0000 H   0  0  0  0  0  0  0  0  0  0  0  0
    6.0010    1.1270    0.0000 H   0  0  0  0  0  0  0  0  0  0  0  0
    3.1951    1.1270    0.0000 H   0  0  0  0  0  0  0  0  0  0  0  0
    6.0010   -0.4930    0.0000 H   0  0  0  0  0  0  0  0  0  0  0  0
    3.1951   -0.4930    0.0000 H   0  0  0  0  0  0  0  0  0  0  0  0
    2.5560   -4.1461    0.0000 H   0  0  0  0  0  0  0  0  0  0  0  0
    2.3291   -4.9930    0.0000 H   0  0  0  0  0  0  0  0  0  0  0  0
    3.1760   -5.2200    0.0000 H   0  0  0  0  0  0  0  0  0  0  0  0
    1.6900   -2.6461    0.0000 H   0  0  0  0  0  0  0  0  0  0  0  0
    1.4631   -3.4930    0.0000 H   0  0  0  0  0  0  0  0  0  0  0  0
    2.3100   -3.7200    0.0000 H   0  0  0  0  0  0  0  0  0  0  0  0
  1  3  2  0  0  0  0
  1  4  2  0  0  0  0
  1  7  1  0  0  0  0
  1 12  1  0  0  0  0
  2  5  2  0  0  0  0
  2  6  2  0  0  0  0
  2  8  1  0  0  0  0
  2 16  1  0  0  0  0
  7  9  1  0  0  0  0
  7 28  1  0  0  0  0
  8 13  1  0  0  0  0
  8 34  1  0  0  0  0
  9 10  1  0  0  0  0
  9 11  1  0  0  0  0
  9 23  1  0  0  0  0
 10 11  1  0  0  0  0
 10 24  1  0  0  0  0
 10 25  1  0  0  0  0
 11 26  1  0  0  0  0
 11 27  1  0  0  0  0
 12 17  2  0  0  0  0
 12 18  1  0  0  0  0
 13 14  1  0  0  0  0
 13 15  1  0  0  0  0
 13 29  1  0  0  0  0
 14 21  1  0  0  0  0
 14 30  1  0  0  0  0
 14 31  1  0  0  0  0
 15 22  1  0  0  0  0
 15 32  1  0  0  0  0
 15 33  1  0  0  0  0
 16 19  2  0  0  0  0
 16 20  1  0  0  0  0
 17 19  1  0  0  0  0
 17 35  1  0  0  0  0
 18 20  2  0  0  0  0
 18 36  1  0  0  0  0
 19 37  1  0  0  0  0
 20 38  1  0  0  0  0
 21 39  1  0  0  0  0
 21 40  1  0  0  0  0
 21 41  1  0  0  0  0
 22 42  1  0  0  0  0
 22 43  1  0  0  0  0
 22 44  1  0  0  0  0
M  END
> <PUBCHEM_COMPOUND_CID>
133825690

> <PUBCHEM_COMPOUND_CANONICALIZED>
1

> <PUBCHEM_CACTVS_COMPLEXITY>
547

> <PUBCHEM_CACTVS_HBOND_ACCEPTOR>
6

> <PUBCHEM_CACTVS_HBOND_DONOR>
2

> <PUBCHEM_CACTVS_ROTATABLE_BOND>
8

> <PUBCHEM_CACTVS_SUBSKEYS>
AAADceBzOABgAAAAAAAAAAAAGAAAAAAAAAAwAAAAAAAAAAABAAAAHAQQQAAACCjBUAQyAYBAAAKAACBCAHBCABAgAAAIiJgAAIgIICKAERCAIAAgkAAIiAcAAAAAAAgAAAAAAAAAEAAAAAAAAAAAAAAAAA==

> <PUBCHEM_IUPAC_OPENEYE_NAME>
N1-cyclopropyl-N4-(1-ethylpropyl)benzene-1,4-disulfonamide

> <PUBCHEM_IUPAC_CAS_NAME>
N1-cyclopropyl-N4-pentan-3-ylbenzene-1,4-disulfonamide

> <PUBCHEM_IUPAC_NAME_MARKUP>
1-<I>N</I>-cyclopropyl-4-<I>N</I>-pentan-3-ylbenzene-1,4-disulfonamide

> <PUBCHEM_IUPAC_NAME>
1-N-cyclopropyl-4-N-pentan-3-ylbenzene-1,4-disulfonamide

> <PUBCHEM_IUPAC_SYSTEMATIC_NAME>
N1-cyclopropyl-N4-pentan-3-yl-benzene-1,4-disulfonamide

> <PUBCHEM_IUPAC_TRADITIONAL_NAME>
N-cyclopropyl-N'-(1-ethylpropyl)benzene-1,4-disulfonamide

> <PUBCHEM_IUPAC_INCHI>
InChI=1S/C14H22N2O4S2/c1-3-11(4-2)15-21(17,18)13-7-9-14(10-8-13)22(19,20)16-12-5-6-12/h7-12,15-16H,3-6H2,1-2H3

> <PUBCHEM_IUPAC_INCHIKEY>
NOCOUCDWQCZMNJ-UHFFFAOYSA-N

> <PUBCHEM_XLOGP3_AA>
2.3

> <PUBCHEM_EXACT_MASS>
346.10209953

> <PUBCHEM_MOLECULAR_FORMULA>
C14H22N2O4S2

> <PUBCHEM_MOLECULAR_WEIGHT>
346.5

> <PUBCHEM_OPENEYE_CAN_SMILES>
CCC(CC)NS(=O)(=O)C1=CC=C(C=C1)S(=O)(=O)NC2CC2

> <PUBCHEM_OPENEYE_ISO_SMILES>
CCC(CC)NS(=O)(=O)C1=CC=C(C=C1)S(=O)(=O)NC2CC2

> <PUBCHEM_CACTVS_TPSA>
109

> <PUBCHEM_MONOISOTOPIC_WEIGHT>
346.10209953

> <PUBCHEM_TOTAL_CHARGE>
0

> <PUBCHEM_HEAVY_ATOM_COUNT>
22

> <PUBCHEM_ATOM_DEF_STEREO_COUNT>
0

> <PUBCHEM_ATOM_UDEF_STEREO_COUNT>
0

> <PUBCHEM_BOND_DEF_STEREO_COUNT>
0

> <PUBCHEM_BOND_UDEF_STEREO_COUNT>
0

> <PUBCHEM_ISOTOPIC_ATOM_COUNT>
0

> <PUBCHEM_COMPONENT_COUNT>
1

> <PUBCHEM_CACTVS_TAUTO_COUNT>
-1

> <PUBCHEM_COORDINATE_TYPE>
1
5
255

> <PUBCHEM_BONDANNOTATIONS>
12  17  8
12  18  8
16  19  8
16  20  8
17  19  8
18  20  8

$$$$
