 
  -OEChem-10192104142D

 23 23  0     1  0  0  0  0  0999 V2000
    2.5369    0.4400    0.0000 O   0  0  0  0  0  0  0  0  0  0  0  0
    5.1350    1.9400    0.0000 O   0  0  0  0  0  0  0  0  0  0  0  0
    3.4030    1.9400    0.0000 O   0  0  0  0  0  0  0  0  0  0  0  0
    4.2690    0.4400    0.0000 C   0  0  2  0  0  0  0  0  0  0  0  0
    5.1350   -0.0600    0.0000 C   0  0  0  0  0  0  0  0  0  0  0  0
    3.4030   -0.0600    0.0000 C   0  0  2  0  0  0  0  0  0  0  0  0
    5.1350   -1.0600    0.0000 C   0  0  0  0  0  0  0  0  0  0  0  0
    4.2690   -1.5600    0.0000 C   0  0  0  0  0  0  0  0  0  0  0  0
    3.4030   -1.0600    0.0000 C   0  0  0  0  0  0  0  0  0  0  0  0
    4.2690    1.4400    0.0000 C   0  0  0  0  0  0  0  0  0  0  0  0
    4.2690   -2.5600    0.0000 C   0  0  0  0  0  0  0  0  0  0  0  0
    4.8059    0.7500    0.0000 H   0  0  0  0  0  0  0  0  0  0  0  0
    5.7456   -0.1677    0.0000 H   0  0  0  0  0  0  0  0  0  0  0  0
    5.3471    0.5226    0.0000 H   0  0  0  0  0  0  0  0  0  0  0  0
    3.4030    0.5600    0.0000 H   0  0  0  0  0  0  0  0  0  0  0  0
    5.3471   -1.6426    0.0000 H   0  0  0  0  0  0  0  0  0  0  0  0
    5.7456   -0.9523    0.0000 H   0  0  0  0  0  0  0  0  0  0  0  0
    2.8660   -1.3700    0.0000 H   0  0  0  0  0  0  0  0  0  0  0  0
    3.6490   -2.5600    0.0000 H   0  0  0  0  0  0  0  0  0  0  0  0
    4.2690   -3.1800    0.0000 H   0  0  0  0  0  0  0  0  0  0  0  0
    4.8890   -2.5600    0.0000 H   0  0  0  0  0  0  0  0  0  0  0  0
    2.0000    0.1300    0.0000 H   0  0  0  0  0  0  0  0  0  0  0  0
    5.1350    2.5600    0.0000 H   0  0  0  0  0  0  0  0  0  0  0  0
  6  1  1  6  0  0  0
  1 22  1  0  0  0  0
  2 10  1  0  0  0  0
  2 23  1  0  0  0  0
  3 10  2  0  0  0  0
  4  5  1  0  0  0  0
  4  6  1  0  0  0  0
  4 10  1  6  0  0  0
  4 12  1  0  0  0  0
  5  7  1  0  0  0  0
  5 13  1  0  0  0  0
  5 14  1  0  0  0  0
  6  9  1  0  0  0  0
  6 15  1  0  0  0  0
  7  8  1  0  0  0  0
  7 16  1  0  0  0  0
  7 17  1  0  0  0  0
  8  9  2  0  0  0  0
  8 11  1  0  0  0  0
  9 18  1  0  0  0  0
 11 19  1  0  0  0  0
 11 20  1  0  0  0  0
 11 21  1  0  0  0  0
M  END
> <PUBCHEM_COMPOUND_CID>
11506489

> <PUBCHEM_COMPOUND_CANONICALIZED>
1

> <PUBCHEM_CACTVS_COMPLEXITY>
196

> <PUBCHEM_CACTVS_HBOND_ACCEPTOR>
3

> <PUBCHEM_CACTVS_HBOND_DONOR>
2

> <PUBCHEM_CACTVS_ROTATABLE_BOND>
1

> <PUBCHEM_CACTVS_SUBSKEYS>
AAADccBwMAAAAAAAAAAAAAAAAAAAAAAAAAAgAAAAAAAAAAAAAAAAGgAACAAADRSggAICCAAAAgCIAiDSCAAAAAAgAAAACAEAAAgAFBYAAQAAUAAFoAAIEAOIyAAOAAAAAAAAAAAAAAAAAAAAAAAAAAAAAA==

> <PUBCHEM_IUPAC_OPENEYE_NAME>
(1R,2S)-2-hydroxy-4-methyl-cyclohex-3-ene-1-carboxylic acid

> <PUBCHEM_IUPAC_CAS_NAME>
(1R,2S)-2-hydroxy-4-methyl-1-cyclohex-3-enecarboxylic acid

> <PUBCHEM_IUPAC_NAME_MARKUP>
(1<I>R</I>,2<I>S</I>)-2-hydroxy-4-methylcyclohex-3-ene-1-carboxylic acid

> <PUBCHEM_IUPAC_NAME>
(1R,2S)-2-hydroxy-4-methylcyclohex-3-ene-1-carboxylic acid

> <PUBCHEM_IUPAC_SYSTEMATIC_NAME>
(1R,2S)-4-methyl-2-oxidanyl-cyclohex-3-ene-1-carboxylic acid

> <PUBCHEM_IUPAC_TRADITIONAL_NAME>
(1R,2S)-2-hydroxy-4-methyl-cyclohex-3-ene-1-carboxylic acid

> <PUBCHEM_IUPAC_INCHI>
InChI=1S/C8H12O3/c1-5-2-3-6(8(10)11)7(9)4-5/h4,6-7,9H,2-3H2,1H3,(H,10,11)/t6-,7+/m1/s1

> <PUBCHEM_IUPAC_INCHIKEY>
WKFAIVQQAFPEGP-RQJHMYQMSA-N

> <PUBCHEM_XLOGP3_AA>
0.6

> <PUBCHEM_EXACT_MASS>
156.078644241

> <PUBCHEM_MOLECULAR_FORMULA>
C8H12O3

> <PUBCHEM_MOLECULAR_WEIGHT>
156.18

> <PUBCHEM_OPENEYE_CAN_SMILES>
CC1=CC(C(CC1)C(=O)O)O

> <PUBCHEM_OPENEYE_ISO_SMILES>
CC1=C[C@@H]([C@@H](CC1)C(=O)O)O

> <PUBCHEM_CACTVS_TPSA>
57.5

> <PUBCHEM_MONOISOTOPIC_WEIGHT>
156.078644241

> <PUBCHEM_TOTAL_CHARGE>
0

> <PUBCHEM_HEAVY_ATOM_COUNT>
11

> <PUBCHEM_ATOM_DEF_STEREO_COUNT>
2

> <PUBCHEM_ATOM_UDEF_STEREO_COUNT>
0

> <PUBCHEM_BOND_DEF_STEREO_COUNT>
0

> <PUBCHEM_BOND_UDEF_STEREO_COUNT>
0

> <PUBCHEM_ISOTOPIC_ATOM_COUNT>
0

> <PUBCHEM_COMPONENT_COUNT>
1

> <PUBCHEM_CACTVS_TAUTO_COUNT>
-1

> <PUBCHEM_COORDINATE_TYPE>
1
5
255

> <PUBCHEM_BONDANNOTATIONS>
6  1  6
4  10  6

$$$$
