 
  -OEChem-10192103362D

 23 22  0     1  0  0  0  0  0999 V2000
    7.7331    0.3100    0.0000 O   0  0  0  0  0  0  0  0  0  0  0  0
    2.5369    0.3100    0.0000 O   0  0  0  0  0  0  0  0  0  0  0  0
    3.4030   -1.1900    0.0000 O   0  0  0  0  0  0  0  0  0  0  0  0
    6.8671    1.8100    0.0000 O   0  0  0  0  0  0  0  0  0  0  0  0
    3.4030    1.8100    0.0000 O   0  0  0  0  0  0  0  0  0  0  0  0
    5.1350   -1.1900    0.0000 O   0  0  0  0  0  0  0  0  0  0  0  0
    5.1350    0.8100    0.0000 C   0  0  0  0  0  0  0  0  0  0  0  0
    6.0010    0.3100    0.0000 C   0  0  3  0  0  0  0  0  0  0  0  0
    4.2690    0.3100    0.0000 C   0  0  0  0  0  0  0  0  0  0  0  0
    6.0010   -0.6900    0.0000 C   0  0  0  0  0  0  0  0  0  0  0  0
    6.8671    0.8100    0.0000 C   0  0  0  0  0  0  0  0  0  0  0  0
    3.4030    0.8100    0.0000 C   0  0  0  0  0  0  0  0  0  0  0  0
    4.2690   -0.6900    0.0000 C   0  0  0  0  0  0  0  0  0  0  0  0
    5.5335    1.2850    0.0000 H   0  0  0  0  0  0  0  0  0  0  0  0
    4.7365    1.2850    0.0000 H   0  0  0  0  0  0  0  0  0  0  0  0
    6.5380    0.0000    0.0000 H   0  0  0  0  0  0  0  0  0  0  0  0
    4.2690    0.9300    0.0000 H   0  0  0  0  0  0  0  0  0  0  0  0
    5.3810   -0.6900    0.0000 H   0  0  0  0  0  0  0  0  0  0  0  0
    6.0010   -1.3100    0.0000 H   0  0  0  0  0  0  0  0  0  0  0  0
    6.6210   -0.6900    0.0000 H   0  0  0  0  0  0  0  0  0  0  0  0
    8.2700    0.6200    0.0000 H   0  0  0  0  0  0  0  0  0  0  0  0
    2.0000    0.6200    0.0000 H   0  0  0  0  0  0  0  0  0  0  0  0
    3.4030   -1.8100    0.0000 H   0  0  0  0  0  0  0  0  0  0  0  0
  1 11  1  0  0  0  0
  1 21  1  0  0  0  0
  2 12  1  0  0  0  0
  2 22  1  0  0  0  0
  3 13  1  0  0  0  0
  3 23  1  0  0  0  0
  4 11  2  0  0  0  0
  5 12  2  0  0  0  0
  6 13  2  0  0  0  0
  7  8  1  0  0  0  0
  7  9  1  0  0  0  0
  7 14  1  0  0  0  0
  7 15  1  0  0  0  0
  8 10  1  0  0  0  0
  8 11  1  0  0  0  0
  8 16  1  0  0  0  0
  9 12  1  0  0  0  0
  9 13  1  0  0  0  0
  9 17  1  0  0  0  0
 10 18  1  0  0  0  0
 10 19  1  0  0  0  0
 10 20  1  0  0  0  0
M  END
> <PUBCHEM_COMPOUND_CID>
317609

> <PUBCHEM_COMPOUND_CANONICALIZED>
1

> <PUBCHEM_CACTVS_COMPLEXITY>
219

> <PUBCHEM_CACTVS_HBOND_ACCEPTOR>
6

> <PUBCHEM_CACTVS_HBOND_DONOR>
3

> <PUBCHEM_CACTVS_ROTATABLE_BOND>
5

> <PUBCHEM_CACTVS_SUBSKEYS>
AAADccBgOAAAAAAAAAAAAAAAAAAAAAAAAAAAAAAAAAAAAAAAAAAAGgAACAAADQCAgAACCAAAAgAIAACQCAAAAAAAAAAAAAEAAAAAABYIAAAAQAAFIAAAAACIJgAMAAAAAAAAAAAAAAAAAAAAAAAAAAAAAA==

> <PUBCHEM_IUPAC_OPENEYE_NAME>
butane-1,1,3-tricarboxylic acid

> <PUBCHEM_IUPAC_CAS_NAME>
butane-1,1,3-tricarboxylic acid

> <PUBCHEM_IUPAC_NAME_MARKUP>
butane-1,1,3-tricarboxylic acid

> <PUBCHEM_IUPAC_NAME>
butane-1,1,3-tricarboxylic acid

> <PUBCHEM_IUPAC_SYSTEMATIC_NAME>
butane-1,1,3-tricarboxylic acid

> <PUBCHEM_IUPAC_TRADITIONAL_NAME>
butane-1,1,3-tricarboxylic acid

> <PUBCHEM_IUPAC_INCHI>
InChI=1S/C7H10O6/c1-3(5(8)9)2-4(6(10)11)7(12)13/h3-4H,2H2,1H3,(H,8,9)(H,10,11)(H,12,13)

> <PUBCHEM_IUPAC_INCHIKEY>
GRFZNXQGHSUMLB-UHFFFAOYSA-N

> <PUBCHEM_XLOGP3_AA>
-0.1

> <PUBCHEM_EXACT_MASS>
190.04773803

> <PUBCHEM_MOLECULAR_FORMULA>
C7H10O6

> <PUBCHEM_MOLECULAR_WEIGHT>
190.15

> <PUBCHEM_OPENEYE_CAN_SMILES>
CC(CC(C(=O)O)C(=O)O)C(=O)O

> <PUBCHEM_OPENEYE_ISO_SMILES>
CC(CC(C(=O)O)C(=O)O)C(=O)O

> <PUBCHEM_CACTVS_TPSA>
112

> <PUBCHEM_MONOISOTOPIC_WEIGHT>
190.04773803

> <PUBCHEM_TOTAL_CHARGE>
0

> <PUBCHEM_HEAVY_ATOM_COUNT>
13

> <PUBCHEM_ATOM_DEF_STEREO_COUNT>
0

> <PUBCHEM_ATOM_UDEF_STEREO_COUNT>
1

> <PUBCHEM_BOND_DEF_STEREO_COUNT>
0

> <PUBCHEM_BOND_UDEF_STEREO_COUNT>
0

> <PUBCHEM_ISOTOPIC_ATOM_COUNT>
0

> <PUBCHEM_COMPONENT_COUNT>
1

> <PUBCHEM_CACTVS_TAUTO_COUNT>
-1

> <PUBCHEM_COORDINATE_TYPE>
1
5
255

> <PUBCHEM_BONDANNOTATIONS>
8  10  3

$$$$
