 
  -OEChem-10192103582D

 74 78  0     1  0  0  0  0  0999 V2000
    8.2114    4.4767    0.0000 O   0  0  0  0  0  0  0  0  0  0  0  0
    5.1427    4.0338    0.0000 O   0  0  0  0  0  0  0  0  0  0  0  0
    5.5616    5.2504    0.0000 O   0  0  0  0  0  0  0  0  0  0  0  0
    5.9630    1.4549    0.0000 O   0  0  0  0  0  0  0  0  0  0  0  0
    7.7331    1.4722    0.0000 O   0  0  0  0  0  0  0  0  0  0  0  0
    6.8671   -0.0278    0.0000 O   0  0  0  0  0  0  0  0  0  0  0  0
    3.3555    3.0676    0.0000 O   0  0  0  0  0  0  0  0  0  0  0  0
    4.2560    4.5472    0.0000 O   0  0  0  0  0  0  0  0  0  0  0  0
    9.4651    0.4722    0.0000 O   0  0  0  0  0  0  0  0  0  0  0  0
    9.4651   -1.5278    0.0000 O   0  0  0  0  0  0  0  0  0  0  0  0
    7.7331   -2.5278    0.0000 O   0  0  0  0  0  0  0  0  0  0  0  0
    6.0010   -2.5278    0.0000 O   0  0  0  0  0  0  0  0  0  0  0  0
    4.2690   -2.5278    0.0000 O   0  0  0  0  0  0  0  0  0  0  0  0
    6.0010   -4.5278    0.0000 O   0  0  0  0  0  0  0  0  0  0  0  0
    4.2690   -5.5278    0.0000 O   0  0  0  0  0  0  0  0  0  0  0  0
    2.5369   -4.5278    0.0000 O   0  0  0  0  0  0  0  0  0  0  0  0
    2.5369   -1.5278    0.0000 O   0  0  0  0  0  0  0  0  0  0  0  0
    7.6139    3.6744    0.0000 C   0  0  1  0  0  0  0  0  0  0  0  0
    7.2177    4.5926    0.0000 C   0  0  2  0  0  0  0  0  0  0  0  0
    6.8630    3.0139    0.0000 C   0  0  2  0  0  0  0  0  0  0  0  0
    6.0029    3.5238    0.0000 C   0  0  1  0  0  0  0  0  0  0  0  0
    6.2221    4.4995    0.0000 C   0  0  2  0  0  0  0  0  0  0  0  0
    6.8671    1.9722    0.0000 C   0  0  1  0  0  0  0  0  0  0  0  0
    8.0100    2.7562    0.0000 C   0  0  0  0  0  0  0  0  0  0  0  0
    5.0871    3.0276    0.0000 C   0  0  0  0  0  0  0  0  0  0  0  0
    5.0670    1.9861    0.0000 C   0  0  0  0  0  0  0  0  0  0  0  0
    4.2328    3.5474    0.0000 C   0  0  0  0  0  0  0  0  0  0  0  0
    7.7331    0.4722    0.0000 C   0  0  2  0  0  0  0  0  0  0  0  0
    8.5991   -0.0278    0.0000 C   0  0  1  0  0  0  0  0  0  0  0  0
    8.5991   -1.0278    0.0000 C   0  0  2  0  0  0  0  0  0  0  0  0
    6.8671   -1.0278    0.0000 C   0  0  1  0  0  0  0  0  0  0  0  0
    7.7331   -1.5278    0.0000 C   0  0  1  0  0  0  0  0  0  0  0  0
    6.0010   -1.5278    0.0000 C   0  0  0  0  0  0  0  0  0  0  0  0
    2.5012    3.5875    0.0000 C   0  0  0  0  0  0  0  0  0  0  0  0
    5.1350   -3.0278    0.0000 C   0  0  2  0  0  0  0  0  0  0  0  0
    5.1350   -4.0278    0.0000 C   0  0  1  0  0  0  0  0  0  0  0  0
    4.2690   -4.5278    0.0000 C   0  0  2  0  0  0  0  0  0  0  0  0
    3.4030   -4.0278    0.0000 C   0  0  1  0  0  0  0  0  0  0  0  0
    3.4030   -3.0278    0.0000 C   0  0  1  0  0  0  0  0  0  0  0  0
    2.5369   -2.5278    0.0000 C   0  0  0  0  0  0  0  0  0  0  0  0
    7.2274    5.4425    0.0000 H   0  0  0  0  0  0  0  0  0  0  0  0
    7.6382    2.6652    0.0000 H   0  0  0  0  0  0  0  0  0  0  0  0
    5.6214    4.3460    0.0000 H   0  0  0  0  0  0  0  0  0  0  0  0
    7.4034    2.2833    0.0000 H   0  0  0  0  0  0  0  0  0  0  0  0
    7.4408    2.5106    0.0000 H   0  0  0  0  0  0  0  0  0  0  0  0
    8.2556    2.1869    0.0000 H   0  0  0  0  0  0  0  0  0  0  0  0
    8.5793    3.0018    0.0000 H   0  0  0  0  0  0  0  0  0  0  0  0
    5.1498    4.6538    0.0000 H   0  0  0  0  0  0  0  0  0  0  0  0
    5.7600    5.8378    0.0000 H   0  0  0  0  0  0  0  0  0  0  0  0
    4.5253    1.6844    0.0000 H   0  0  0  0  0  0  0  0  0  0  0  0
    7.1962    0.7822    0.0000 H   0  0  0  0  0  0  0  0  0  0  0  0
    8.5991    0.5922    0.0000 H   0  0  0  0  0  0  0  0  0  0  0  0
    9.1360   -0.7178    0.0000 H   0  0  0  0  0  0  0  0  0  0  0  0
    6.3301   -0.7178    0.0000 H   0  0  0  0  0  0  0  0  0  0  0  0
    8.2700   -1.8378    0.0000 H   0  0  0  0  0  0  0  0  0  0  0  0
    5.7890   -0.9451    0.0000 H   0  0  0  0  0  0  0  0  0  0  0  0
    5.3905   -1.6354    0.0000 H   0  0  0  0  0  0  0  0  0  0  0  0
    9.4651    1.0922    0.0000 H   0  0  0  0  0  0  0  0  0  0  0  0
    2.8236    4.1171    0.0000 H   0  0  0  0  0  0  0  0  0  0  0  0
    1.9716    3.9098    0.0000 H   0  0  0  0  0  0  0  0  0  0  0  0
    2.1789    3.0579    0.0000 H   0  0  0  0  0  0  0  0  0  0  0  0
   10.0021   -1.2178    0.0000 H   0  0  0  0  0  0  0  0  0  0  0  0
    8.2700   -2.8378    0.0000 H   0  0  0  0  0  0  0  0  0  0  0  0
    5.1350   -2.4078    0.0000 H   0  0  0  0  0  0  0  0  0  0  0  0
    5.1350   -4.6478    0.0000 H   0  0  0  0  0  0  0  0  0  0  0  0
    3.7320   -4.8378    0.0000 H   0  0  0  0  0  0  0  0  0  0  0  0
    3.4030   -4.6478    0.0000 H   0  0  0  0  0  0  0  0  0  0  0  0
    3.4030   -2.4078    0.0000 H   0  0  0  0  0  0  0  0  0  0  0  0
    1.9264   -2.4201    0.0000 H   0  0  0  0  0  0  0  0  0  0  0  0
    2.3249   -3.1104    0.0000 H   0  0  0  0  0  0  0  0  0  0  0  0
    6.5380   -4.2178    0.0000 H   0  0  0  0  0  0  0  0  0  0  0  0
    3.7320   -5.8378    0.0000 H   0  0  0  0  0  0  0  0  0  0  0  0
    2.0000   -4.2178    0.0000 H   0  0  0  0  0  0  0  0  0  0  0  0
    2.0000   -1.2178    0.0000 H   0  0  0  0  0  0  0  0  0  0  0  0
  1 18  1  0  0  0  0
  1 19  1  0  0  0  0
 21  2  1  6  0  0  0
  2 48  1  0  0  0  0
 22  3  1  6  0  0  0
  3 49  1  0  0  0  0
  4 23  1  0  0  0  0
  4 26  1  0  0  0  0
 23  5  1  6  0  0  0
 28  5  1  1  0  0  0
  6 28  1  0  0  0  0
  6 31  1  0  0  0  0
  7 27  1  0  0  0  0
  7 34  1  0  0  0  0
  8 27  2  0  0  0  0
 29  9  1  6  0  0  0
  9 58  1  0  0  0  0
 30 10  1  1  0  0  0
 10 62  1  0  0  0  0
 32 11  1  6  0  0  0
 11 63  1  0  0  0  0
 12 33  1  0  0  0  0
 35 12  1  1  0  0  0
 13 35  1  0  0  0  0
 13 39  1  0  0  0  0
 36 14  1  6  0  0  0
 14 71  1  0  0  0  0
 37 15  1  1  0  0  0
 15 72  1  0  0  0  0
 38 16  1  6  0  0  0
 16 73  1  0  0  0  0
 17 40  1  0  0  0  0
 17 74  1  0  0  0  0
 18 19  1  0  0  0  0
 18 20  1  0  0  0  0
 18 24  1  1  0  0  0
 19 22  1  0  0  0  0
 19 41  1  1  0  0  0
 20 21  1  0  0  0  0
 20 23  1  0  0  0  0
 20 42  1  6  0  0  0
 21 22  1  0  0  0  0
 21 25  1  0  0  0  0
 22 43  1  0  0  0  0
 23 44  1  0  0  0  0
 24 45  1  0  0  0  0
 24 46  1  0  0  0  0
 24 47  1  0  0  0  0
 25 26  2  0  0  0  0
 25 27  1  0  0  0  0
 26 50  1  0  0  0  0
 28 29  1  0  0  0  0
 28 51  1  0  0  0  0
 29 30  1  0  0  0  0
 29 52  1  0  0  0  0
 30 32  1  0  0  0  0
 30 53  1  0  0  0  0
 31 32  1  0  0  0  0
 31 33  1  1  0  0  0
 31 54  1  0  0  0  0
 32 55  1  0  0  0  0
 33 56  1  0  0  0  0
 33 57  1  0  0  0  0
 34 59  1  0  0  0  0
 34 60  1  0  0  0  0
 34 61  1  0  0  0  0
 35 36  1  0  0  0  0
 35 64  1  0  0  0  0
 36 37  1  0  0  0  0
 36 65  1  0  0  0  0
 37 38  1  0  0  0  0
 37 66  1  0  0  0  0
 38 39  1  0  0  0  0
 38 67  1  0  0  0  0
 39 40  1  1  0  0  0
 39 68  1  0  0  0  0
 40 69  1  0  0  0  0
 40 70  1  0  0  0  0
M  END
> <PUBCHEM_COMPOUND_CID>
102588685

> <PUBCHEM_COMPOUND_CANONICALIZED>
1

> <PUBCHEM_CACTVS_COMPLEXITY>
994

> <PUBCHEM_CACTVS_HBOND_ACCEPTOR>
17

> <PUBCHEM_CACTVS_HBOND_DONOR>
9

> <PUBCHEM_CACTVS_ROTATABLE_BOND>
8

> <PUBCHEM_CACTVS_SUBSKEYS>
AAADcfB4PgAAAAAAAAAAAAAAEgAAAYAAAAAkSJEAAAAAAEAAAAAAGgAACAAADVSwgAMCCAAABgCIAgDSCAAACAAgIAAAAAEAAEgRFBYAIAAiQAAF4AAHMIHK7PzOgAAAAAAAAAAAAAAAAAAAAYQADCAAAA==

> <PUBCHEM_IUPAC_OPENEYE_NAME>
methyl (1S,2R,4S,5R,6R,10S)-5,6-dihydroxy-2-methyl-10-[(2S,3R,4S,5S,6R)-3,4,5-trihydroxy-6-[[(2R,3R,4S,5S,6R)-3,4,5-trihydroxy-6-(hydroxymethyl)tetrahydropyran-2-yl]oxymethyl]tetrahydropyran-2-yl]oxy-3,9-dioxatricyclo[4.4.0.02,4]dec-7-ene-7-carboxylate

> <PUBCHEM_IUPAC_CAS_NAME>
(1S,2R,4S,5R,6R,10S)-5,6-dihydroxy-2-methyl-10-[[(2S,3R,4S,5S,6R)-3,4,5-trihydroxy-6-[[(2R,3R,4S,5S,6R)-3,4,5-trihydroxy-6-(hydroxymethyl)-2-oxanyl]oxymethyl]-2-oxanyl]oxy]-3,9-dioxatricyclo[4.4.0.02,4]dec-7-ene-7-carboxylic acid methyl ester

> <PUBCHEM_IUPAC_NAME_MARKUP>
methyl (1<I>S</I>,2<I>R</I>,4<I>S</I>,5<I>R</I>,6<I>R</I>,10<I>S</I>)-5,6-dihydroxy-2-methyl-10-[(2<I>S</I>,3<I>R</I>,4<I>S</I>,5<I>S</I>,6<I>R</I>)-3,4,5-trihydroxy-6-[[(2<I>R</I>,3<I>R</I>,4<I>S</I>,5<I>S</I>,6<I>R</I>)-3,4,5-trihydroxy-6-(hydroxymethyl)oxan-2-yl]oxymethyl]oxan-2-yl]oxy-3,9-dioxatricyclo[4.4.0.0<SUP>2,4</SUP>]dec-7-ene-7-carboxylate

> <PUBCHEM_IUPAC_NAME>
methyl (1S,2R,4S,5R,6R,10S)-5,6-dihydroxy-2-methyl-10-[(2S,3R,4S,5S,6R)-3,4,5-trihydroxy-6-[[(2R,3R,4S,5S,6R)-3,4,5-trihydroxy-6-(hydroxymethyl)oxan-2-yl]oxymethyl]oxan-2-yl]oxy-3,9-dioxatricyclo[4.4.0.02,4]dec-7-ene-7-carboxylate

> <PUBCHEM_IUPAC_SYSTEMATIC_NAME>
methyl (1S,2R,4S,5R,6R,10S)-10-[(2S,3R,4S,5S,6R)-6-[[(2R,3R,4S,5S,6R)-6-(hydroxymethyl)-3,4,5-tris(oxidanyl)oxan-2-yl]oxymethyl]-3,4,5-tris(oxidanyl)oxan-2-yl]oxy-2-methyl-5,6-bis(oxidanyl)-3,9-dioxatricyclo[4.4.0.02,4]dec-7-ene-7-carboxylate

> <PUBCHEM_IUPAC_TRADITIONAL_NAME>
(1S,2R,4S,5R,6R,10S)-5,6-dihydroxy-2-methyl-10-[(2S,3R,4S,5S,6R)-3,4,5-trihydroxy-6-[[(2R,3R,4S,5S,6R)-3,4,5-trihydroxy-6-methylol-tetrahydropyran-2-yl]oxymethyl]tetrahydropyran-2-yl]oxy-3,9-dioxatricyclo[4.4.0.02,4]dec-7-ene-7-carboxylic acid methyl ester

> <PUBCHEM_IUPAC_INCHI>
InChI=1S/C23H34O17/c1-22-15-21(35-4-6(18(32)34-2)23(15,33)16(31)17(22)40-22)39-20-14(30)12(28)10(26)8(38-20)5-36-19-13(29)11(27)9(25)7(3-24)37-19/h4,7-17,19-21,24-31,33H,3,5H2,1-2H3/t7-,8-,9-,10-,11+,12+,13-,14-,15-,16-,17+,19-,20+,21+,22-,23+/m1/s1

> <PUBCHEM_IUPAC_INCHIKEY>
UMSWMEQKGSGQSS-PCUKYGIWSA-N

> <PUBCHEM_XLOGP3_AA>
-5.3

> <PUBCHEM_EXACT_MASS>
582.17959961

> <PUBCHEM_MOLECULAR_FORMULA>
C23H34O17

> <PUBCHEM_MOLECULAR_WEIGHT>
582.5

> <PUBCHEM_OPENEYE_CAN_SMILES>
CC12C3C(OC=C(C3(C(C1O2)O)O)C(=O)OC)OC4C(C(C(C(O4)COC5C(C(C(C(O5)CO)O)O)O)O)O)O

> <PUBCHEM_OPENEYE_ISO_SMILES>
C[C@@]12[C@H]3[C@@H](OC=C([C@]3([C@@H]([C@@H]1O2)O)O)C(=O)OC)O[C@H]4[C@@H]([C@H]([C@@H]([C@H](O4)CO[C@H]5[C@@H]([C@H]([C@@H]([C@H](O5)CO)O)O)O)O)O)O

> <PUBCHEM_CACTVS_TPSA>
267

> <PUBCHEM_MONOISOTOPIC_WEIGHT>
582.17959961

> <PUBCHEM_TOTAL_CHARGE>
0

> <PUBCHEM_HEAVY_ATOM_COUNT>
40

> <PUBCHEM_ATOM_DEF_STEREO_COUNT>
16

> <PUBCHEM_ATOM_UDEF_STEREO_COUNT>
0

> <PUBCHEM_BOND_DEF_STEREO_COUNT>
0

> <PUBCHEM_BOND_UDEF_STEREO_COUNT>
0

> <PUBCHEM_ISOTOPIC_ATOM_COUNT>
0

> <PUBCHEM_COMPONENT_COUNT>
1

> <PUBCHEM_CACTVS_TAUTO_COUNT>
-1

> <PUBCHEM_COORDINATE_TYPE>
1
5
255

> <PUBCHEM_BONDANNOTATIONS>
30  10  5
32  11  6
35  12  5
36  14  6
37  15  5
38  16  6
18  24  5
19  41  5
21  2  6
20  42  6
22  3  6
31  33  5
39  40  5
23  5  6
28  5  5
29  9  6

$$$$
