 
  -OEChem-10192103572D

 29 30  0     0  0  0  0  0  0999 V2000
    6.9343   -0.7877    0.0000 O   0  0  0  0  0  0  0  0  0  0  0  0
    4.3198   -2.3223    0.0000 O   0  0  0  0  0  0  0  0  0  0  0  0
    6.9343    2.2123    0.0000 O   0  0  0  0  0  0  0  0  0  0  0  0
    2.5381    0.7364    0.0000 O   0  0  0  0  0  0  0  0  0  0  0  0
    6.0682   -2.2877    0.0000 O   0  0  0  0  0  0  0  0  0  0  0  0
    5.2022    0.2123    0.0000 C   0  0  0  0  0  0  0  0  0  0  0  0
    6.0682    0.7123    0.0000 C   0  0  0  0  0  0  0  0  0  0  0  0
    5.2022   -0.7877    0.0000 C   0  0  0  0  0  0  0  0  0  0  0  0
    6.9343    0.2123    0.0000 C   0  0  0  0  0  0  0  0  0  0  0  0
    4.3083   -1.3224    0.0000 C   0  0  0  0  0  0  0  0  0  0  0  0
    4.3083    0.7469    0.0000 C   0  0  0  0  0  0  0  0  0  0  0  0
    6.0682    1.7123    0.0000 C   0  0  0  0  0  0  0  0  0  0  0  0
    6.0682   -1.2877    0.0000 C   0  0  0  0  0  0  0  0  0  0  0  0
    3.4022    0.2331    0.0000 C   0  0  0  0  0  0  0  0  0  0  0  0
    3.4022   -0.8085    0.0000 C   0  0  0  0  0  0  0  0  0  0  0  0
    7.8003    0.7123    0.0000 C   0  0  0  0  0  0  0  0  0  0  0  0
    3.4597   -2.8323    0.0000 C   0  0  0  0  0  0  0  0  0  0  0  0
    4.3154    1.3669    0.0000 H   0  0  0  0  0  0  0  0  0  0  0  0
    5.8562    2.2949    0.0000 H   0  0  0  0  0  0  0  0  0  0  0  0
    5.4577    1.6046    0.0000 H   0  0  0  0  0  0  0  0  0  0  0  0
    2.8665   -1.1206    0.0000 H   0  0  0  0  0  0  0  0  0  0  0  0
    8.1103    0.1754    0.0000 H   0  0  0  0  0  0  0  0  0  0  0  0
    8.3372    1.0223    0.0000 H   0  0  0  0  0  0  0  0  0  0  0  0
    7.4903    1.2492    0.0000 H   0  0  0  0  0  0  0  0  0  0  0  0
    6.9343    2.8323    0.0000 H   0  0  0  0  0  0  0  0  0  0  0  0
    2.0000    0.4285    0.0000 H   0  0  0  0  0  0  0  0  0  0  0  0
    3.1435   -2.2990    0.0000 H   0  0  0  0  0  0  0  0  0  0  0  0
    2.9263   -3.1485    0.0000 H   0  0  0  0  0  0  0  0  0  0  0  0
    3.7758   -3.3656    0.0000 H   0  0  0  0  0  0  0  0  0  0  0  0
  1  9  1  0  0  0  0
  1 13  1  0  0  0  0
  2 10  1  0  0  0  0
  2 17  1  0  0  0  0
  3 12  1  0  0  0  0
  3 25  1  0  0  0  0
  4 14  1  0  0  0  0
  4 26  1  0  0  0  0
  5 13  2  0  0  0  0
  6  7  1  0  0  0  0
  6  8  2  0  0  0  0
  6 11  1  0  0  0  0
  7  9  2  0  0  0  0
  7 12  1  0  0  0  0
  8 10  1  0  0  0  0
  8 13  1  0  0  0  0
  9 16  1  0  0  0  0
 10 15  2  0  0  0  0
 11 14  2  0  0  0  0
 11 18  1  0  0  0  0
 12 19  1  0  0  0  0
 12 20  1  0  0  0  0
 14 15  1  0  0  0  0
 15 21  1  0  0  0  0
 16 22  1  0  0  0  0
 16 23  1  0  0  0  0
 16 24  1  0  0  0  0
 17 27  1  0  0  0  0
 17 28  1  0  0  0  0
 17 29  1  0  0  0  0
M  END
> <PUBCHEM_COMPOUND_CID>
91095206

> <PUBCHEM_COMPOUND_CANONICALIZED>
1

> <PUBCHEM_CACTVS_COMPLEXITY>
349

> <PUBCHEM_CACTVS_HBOND_ACCEPTOR>
5

> <PUBCHEM_CACTVS_HBOND_DONOR>
2

> <PUBCHEM_CACTVS_ROTATABLE_BOND>
2

> <PUBCHEM_CACTVS_SUBSKEYS>
AAADccBwOAAAAAAAAAAAAAAAAAAAAAAAAAAwQAAAAAAAAACBAAAAGgAACAAADASgmAIyDoAABgCIAiDSCAACCAAkIAAAiAEGCMgMNzaGNRqCcWAl4BUIuQeI7LzOoAABCAAYAABAAAIQADAAAAAAAAAAAA==

> <PUBCHEM_IUPAC_OPENEYE_NAME>
6-hydroxy-4-(hydroxymethyl)-8-methoxy-3-methyl-isochromen-1-one

> <PUBCHEM_IUPAC_CAS_NAME>
6-hydroxy-4-(hydroxymethyl)-8-methoxy-3-methyl-2-benzopyran-1-one

> <PUBCHEM_IUPAC_NAME_MARKUP>
6-hydroxy-4-(hydroxymethyl)-8-methoxy-3-methylisochromen-1-one

> <PUBCHEM_IUPAC_NAME>
6-hydroxy-4-(hydroxymethyl)-8-methoxy-3-methylisochromen-1-one

> <PUBCHEM_IUPAC_SYSTEMATIC_NAME>
4-(hydroxymethyl)-8-methoxy-3-methyl-6-oxidanyl-isochromen-1-one

> <PUBCHEM_IUPAC_TRADITIONAL_NAME>
6-hydroxy-8-methoxy-3-methyl-4-methylol-isocoumarin

> <PUBCHEM_IUPAC_INCHI>
InChI=1S/C12H12O5/c1-6-9(5-13)8-3-7(14)4-10(16-2)11(8)12(15)17-6/h3-4,13-14H,5H2,1-2H3

> <PUBCHEM_IUPAC_INCHIKEY>
XEJHQUMKTGNSBW-UHFFFAOYSA-N

> <PUBCHEM_XLOGP3_AA>
0.6

> <PUBCHEM_EXACT_MASS>
236.06847348

> <PUBCHEM_MOLECULAR_FORMULA>
C12H12O5

> <PUBCHEM_MOLECULAR_WEIGHT>
236.22

> <PUBCHEM_OPENEYE_CAN_SMILES>
CC1=C(C2=C(C(=CC(=C2)O)OC)C(=O)O1)CO

> <PUBCHEM_OPENEYE_ISO_SMILES>
CC1=C(C2=C(C(=CC(=C2)O)OC)C(=O)O1)CO

> <PUBCHEM_CACTVS_TPSA>
76

> <PUBCHEM_MONOISOTOPIC_WEIGHT>
236.06847348

> <PUBCHEM_TOTAL_CHARGE>
0

> <PUBCHEM_HEAVY_ATOM_COUNT>
17

> <PUBCHEM_ATOM_DEF_STEREO_COUNT>
0

> <PUBCHEM_ATOM_UDEF_STEREO_COUNT>
0

> <PUBCHEM_BOND_DEF_STEREO_COUNT>
0

> <PUBCHEM_BOND_UDEF_STEREO_COUNT>
0

> <PUBCHEM_ISOTOPIC_ATOM_COUNT>
0

> <PUBCHEM_COMPONENT_COUNT>
1

> <PUBCHEM_CACTVS_TAUTO_COUNT>
-1

> <PUBCHEM_COORDINATE_TYPE>
1
5
255

> <PUBCHEM_BONDANNOTATIONS>
1  13  8
1  9  8
10  15  8
11  14  8
14  15  8
6  11  8
6  7  8
6  8  8
7  9  8
8  10  8
8  13  8

$$$$
