 
  -OEChem-10192103502D

 44 43  0     0  0  0  0  0  0999 V2000
    5.4641    4.0600    0.0000 O   0  0  0  0  0  0  0  0  0  0  0  0
    8.9282    4.0600    0.0000 O   0  0  0  0  0  0  0  0  0  0  0  0
    6.3301    5.5600    0.0000 O   0  0  0  0  0  0  0  0  0  0  0  0
    8.0622    5.5600    0.0000 O   0  0  0  0  0  0  0  0  0  0  0  0
    2.0000   -4.9400    0.0000 O   0  0  0  0  0  0  0  0  0  0  0  0
    3.7320   -4.9400    0.0000 O   0  0  0  0  0  0  0  0  0  0  0  0
    5.4641    0.0600    0.0000 C   0  0  0  0  0  0  0  0  0  0  0  0
    5.4641    1.0600    0.0000 C   0  0  0  0  0  0  0  0  0  0  0  0
    4.5981   -0.4400    0.0000 C   0  0  0  0  0  0  0  0  0  0  0  0
    6.3301    1.5600    0.0000 C   0  0  0  0  0  0  0  0  0  0  0  0
    4.5981   -1.4400    0.0000 C   0  0  0  0  0  0  0  0  0  0  0  0
    6.3301    2.5600    0.0000 C   0  0  0  0  0  0  0  0  0  0  0  0
    3.7320   -1.9400    0.0000 C   0  0  0  0  0  0  0  0  0  0  0  0
    7.1962    3.0600    0.0000 C   0  0  0  0  0  0  0  0  0  0  0  0
    3.7320   -2.9400    0.0000 C   0  0  0  0  0  0  0  0  0  0  0  0
    7.1962    4.0600    0.0000 C   0  0  0  0  0  0  0  0  0  0  0  0
    2.8660   -3.4400    0.0000 C   0  0  0  0  0  0  0  0  0  0  0  0
    6.3301    4.5600    0.0000 C   0  0  0  0  0  0  0  0  0  0  0  0
    8.0622    4.5600    0.0000 C   0  0  0  0  0  0  0  0  0  0  0  0
    2.8660   -4.4400    0.0000 C   0  0  0  0  0  0  0  0  0  0  0  0
    5.6762   -0.5226    0.0000 H   0  0  0  0  0  0  0  0  0  0  0  0
    6.0747    0.1677    0.0000 H   0  0  0  0  0  0  0  0  0  0  0  0
    5.2520    1.6426    0.0000 H   0  0  0  0  0  0  0  0  0  0  0  0
    4.8535    0.9523    0.0000 H   0  0  0  0  0  0  0  0  0  0  0  0
    4.3860    0.1426    0.0000 H   0  0  0  0  0  0  0  0  0  0  0  0
    3.9875   -0.5477    0.0000 H   0  0  0  0  0  0  0  0  0  0  0  0
    6.5422    0.9774    0.0000 H   0  0  0  0  0  0  0  0  0  0  0  0
    6.9407    1.6677    0.0000 H   0  0  0  0  0  0  0  0  0  0  0  0
    4.8101   -2.0226    0.0000 H   0  0  0  0  0  0  0  0  0  0  0  0
    5.2087   -1.3323    0.0000 H   0  0  0  0  0  0  0  0  0  0  0  0
    6.1181    3.1426    0.0000 H   0  0  0  0  0  0  0  0  0  0  0  0
    5.7196    2.4523    0.0000 H   0  0  0  0  0  0  0  0  0  0  0  0
    3.5200   -1.3574    0.0000 H   0  0  0  0  0  0  0  0  0  0  0  0
    3.1215   -2.0477    0.0000 H   0  0  0  0  0  0  0  0  0  0  0  0
    7.4082    2.4774    0.0000 H   0  0  0  0  0  0  0  0  0  0  0  0
    7.8067    3.1677    0.0000 H   0  0  0  0  0  0  0  0  0  0  0  0
    3.9441   -3.5226    0.0000 H   0  0  0  0  0  0  0  0  0  0  0  0
    4.3426   -2.8323    0.0000 H   0  0  0  0  0  0  0  0  0  0  0  0
    6.6592    3.7500    0.0000 H   0  0  0  0  0  0  0  0  0  0  0  0
    2.6540   -2.8574    0.0000 H   0  0  0  0  0  0  0  0  0  0  0  0
    2.2554   -3.5477    0.0000 H   0  0  0  0  0  0  0  0  0  0  0  0
    4.9272    4.3700    0.0000 H   0  0  0  0  0  0  0  0  0  0  0  0
    9.4651    4.3700    0.0000 H   0  0  0  0  0  0  0  0  0  0  0  0
    2.0000   -5.5600    0.0000 H   0  0  0  0  0  0  0  0  0  0  0  0
  1 18  1  0  0  0  0
  1 42  1  0  0  0  0
  2 19  1  0  0  0  0
  2 43  1  0  0  0  0
  3 18  2  0  0  0  0
  4 19  2  0  0  0  0
  5 20  1  0  0  0  0
  5 44  1  0  0  0  0
  6 20  2  0  0  0  0
  7  8  1  0  0  0  0
  7  9  1  0  0  0  0
  7 21  1  0  0  0  0
  7 22  1  0  0  0  0
  8 10  1  0  0  0  0
  8 23  1  0  0  0  0
  8 24  1  0  0  0  0
  9 11  1  0  0  0  0
  9 25  1  0  0  0  0
  9 26  1  0  0  0  0
 10 12  1  0  0  0  0
 10 27  1  0  0  0  0
 10 28  1  0  0  0  0
 11 13  1  0  0  0  0
 11 29  1  0  0  0  0
 11 30  1  0  0  0  0
 12 14  1  0  0  0  0
 12 31  1  0  0  0  0
 12 32  1  0  0  0  0
 13 15  1  0  0  0  0
 13 33  1  0  0  0  0
 13 34  1  0  0  0  0
 14 16  1  0  0  0  0
 14 35  1  0  0  0  0
 14 36  1  0  0  0  0
 15 17  1  0  0  0  0
 15 37  1  0  0  0  0
 15 38  1  0  0  0  0
 16 18  1  0  0  0  0
 16 19  1  0  0  0  0
 16 39  1  0  0  0  0
 17 20  1  0  0  0  0
 17 40  1  0  0  0  0
 17 41  1  0  0  0  0
M  END
> <PUBCHEM_COMPOUND_CID>
22024010

> <PUBCHEM_COMPOUND_CANONICALIZED>
1

> <PUBCHEM_CACTVS_COMPLEXITY>
299

> <PUBCHEM_CACTVS_HBOND_ACCEPTOR>
6

> <PUBCHEM_CACTVS_HBOND_DONOR>
3

> <PUBCHEM_CACTVS_ROTATABLE_BOND>
13

> <PUBCHEM_CACTVS_SUBSKEYS>
AAADceBwOAAAAAAAAAAAAAAAAAAAAAAAAAAAAAAAAAAAAAAAAAAAGgAACAAADQCAgAAACAAAAgAIAACQCAAAAAAAAAAAAAEAAAAAABYIAAAAQAAFIAAAAAGIyOCMAAAAAAAAAAAAAAAAAAAAAAAAAAAAAA==

> <PUBCHEM_IUPAC_OPENEYE_NAME>
undecane-1,1,11-tricarboxylic acid

> <PUBCHEM_IUPAC_CAS_NAME>
undecane-1,1,11-tricarboxylic acid

> <PUBCHEM_IUPAC_NAME_MARKUP>
undecane-1,1,11-tricarboxylic acid

> <PUBCHEM_IUPAC_NAME>
undecane-1,1,11-tricarboxylic acid

> <PUBCHEM_IUPAC_SYSTEMATIC_NAME>
undecane-1,1,11-tricarboxylic acid

> <PUBCHEM_IUPAC_TRADITIONAL_NAME>
undecane-1,1,11-tricarboxylic acid

> <PUBCHEM_IUPAC_INCHI>
InChI=1S/C14H24O6/c15-12(16)10-8-6-4-2-1-3-5-7-9-11(13(17)18)14(19)20/h11H,1-10H2,(H,15,16)(H,17,18)(H,19,20)

> <PUBCHEM_IUPAC_INCHIKEY>
LKPNWMVELYVPMH-UHFFFAOYSA-N

> <PUBCHEM_XLOGP3_AA>
3.5

> <PUBCHEM_EXACT_MASS>
288.15728848

> <PUBCHEM_MOLECULAR_FORMULA>
C14H24O6

> <PUBCHEM_MOLECULAR_WEIGHT>
288.34

> <PUBCHEM_OPENEYE_CAN_SMILES>
C(CCCCCC(=O)O)CCCCC(C(=O)O)C(=O)O

> <PUBCHEM_OPENEYE_ISO_SMILES>
C(CCCCCC(=O)O)CCCCC(C(=O)O)C(=O)O

> <PUBCHEM_CACTVS_TPSA>
112

> <PUBCHEM_MONOISOTOPIC_WEIGHT>
288.15728848

> <PUBCHEM_TOTAL_CHARGE>
0

> <PUBCHEM_HEAVY_ATOM_COUNT>
20

> <PUBCHEM_ATOM_DEF_STEREO_COUNT>
0

> <PUBCHEM_ATOM_UDEF_STEREO_COUNT>
0

> <PUBCHEM_BOND_DEF_STEREO_COUNT>
0

> <PUBCHEM_BOND_UDEF_STEREO_COUNT>
0

> <PUBCHEM_ISOTOPIC_ATOM_COUNT>
0

> <PUBCHEM_COMPONENT_COUNT>
1

> <PUBCHEM_CACTVS_TAUTO_COUNT>
-1

> <PUBCHEM_COORDINATE_TYPE>
1
5
255

$$$$
