 
  -OEChem-10192104122D

 17 16  0     0  0  0  0  0  0999 V2000
    3.4030   -0.3170    0.0000 P   0  0  0  0  0  0  0  0  0  0  0  0
    2.5369   -0.8170    0.0000 O   0  0  0  0  0  0  0  0  0  0  0  0
    2.9030    0.5490    0.0000 O   0  0  0  0  0  0  0  0  0  0  0  0
    4.2690    1.1830    0.0000 O   0  0  0  0  0  0  0  0  0  0  0  0
    3.9030   -1.1830    0.0000 O   0  0  0  0  0  0  0  0  0  0  0  0
    6.8671   -0.3170    0.0000 N   0  0  0  0  0  0  0  0  0  0  0  0
    5.1350   -0.3170    0.0000 C   0  0  0  0  0  0  0  0  0  0  0  0
    6.0010    0.1830    0.0000 C   0  0  0  0  0  0  0  0  0  0  0  0
    4.2690    0.1830    0.0000 C   0  0  0  0  0  0  0  0  0  0  0  0
    4.7365   -0.7919    0.0000 H   0  0  0  0  0  0  0  0  0  0  0  0
    5.5335   -0.7919    0.0000 H   0  0  0  0  0  0  0  0  0  0  0  0
    6.3996    0.6580    0.0000 H   0  0  0  0  0  0  0  0  0  0  0  0
    5.6025    0.6580    0.0000 H   0  0  0  0  0  0  0  0  0  0  0  0
    7.4040   -0.0070    0.0000 H   0  0  0  0  0  0  0  0  0  0  0  0
    6.8671   -0.9370    0.0000 H   0  0  0  0  0  0  0  0  0  0  0  0
    2.0000   -0.5070    0.0000 H   0  0  0  0  0  0  0  0  0  0  0  0
    2.2830    0.5490    0.0000 H   0  0  0  0  0  0  0  0  0  0  0  0
  1  2  1  0  0  0  0
  1  3  1  0  0  0  0
  1  5  2  0  0  0  0
  1  9  1  0  0  0  0
  2 16  1  0  0  0  0
  3 17  1  0  0  0  0
  4  9  2  0  0  0  0
  6  8  1  0  0  0  0
  6 14  1  0  0  0  0
  6 15  1  0  0  0  0
  7  8  1  0  0  0  0
  7  9  1  0  0  0  0
  7 10  1  0  0  0  0
  7 11  1  0  0  0  0
  8 12  1  0  0  0  0
  8 13  1  0  0  0  0
M  END
> <PUBCHEM_COMPOUND_CID>
22644526

> <PUBCHEM_COMPOUND_CANONICALIZED>
1

> <PUBCHEM_CACTVS_COMPLEXITY>
150

> <PUBCHEM_CACTVS_HBOND_ACCEPTOR>
5

> <PUBCHEM_CACTVS_HBOND_DONOR>
3

> <PUBCHEM_CACTVS_ROTATABLE_BOND>
3

> <PUBCHEM_CACTVS_SUBSKEYS>
AAADccBCOAIAAAAAAAAAAAAAAAAAAAAAAAAAAAAAAAAAAAAAAAAAHggQCCAACADBgAQAAABAABAIQAAQAIAAAAAAAAAAAIEAAAAAAAgAAAAAAAAAEAAAAAAAAAAAAAAAAAAAAAAAAAAAAAAAAAAAAAAAAA==

> <PUBCHEM_IUPAC_OPENEYE_NAME>
3-aminopropanoylphosphonic acid

> <PUBCHEM_IUPAC_CAS_NAME>
(3-amino-1-oxopropyl)phosphonic acid

> <PUBCHEM_IUPAC_NAME_MARKUP>
3-aminopropanoylphosphonic acid

> <PUBCHEM_IUPAC_NAME>
3-aminopropanoylphosphonic acid

> <PUBCHEM_IUPAC_SYSTEMATIC_NAME>
3-azanylpropanoylphosphonic acid

> <PUBCHEM_IUPAC_TRADITIONAL_NAME>
3-aminopropanoylphosphonic acid

> <PUBCHEM_IUPAC_INCHI>
InChI=1S/C3H8NO4P/c4-2-1-3(5)9(6,7)8/h1-2,4H2,(H2,6,7,8)

> <PUBCHEM_IUPAC_INCHIKEY>
RZIXKNKUUUMSEH-UHFFFAOYSA-N

> <PUBCHEM_XLOGP3_AA>
-5.1

> <PUBCHEM_EXACT_MASS>
153.01909473

> <PUBCHEM_MOLECULAR_FORMULA>
C3H8NO4P

> <PUBCHEM_MOLECULAR_WEIGHT>
153.07

> <PUBCHEM_OPENEYE_CAN_SMILES>
C(CN)C(=O)P(=O)(O)O

> <PUBCHEM_OPENEYE_ISO_SMILES>
C(CN)C(=O)P(=O)(O)O

> <PUBCHEM_CACTVS_TPSA>
101

> <PUBCHEM_MONOISOTOPIC_WEIGHT>
153.01909473

> <PUBCHEM_TOTAL_CHARGE>
0

> <PUBCHEM_HEAVY_ATOM_COUNT>
9

> <PUBCHEM_ATOM_DEF_STEREO_COUNT>
0

> <PUBCHEM_ATOM_UDEF_STEREO_COUNT>
0

> <PUBCHEM_BOND_DEF_STEREO_COUNT>
0

> <PUBCHEM_BOND_UDEF_STEREO_COUNT>
0

> <PUBCHEM_ISOTOPIC_ATOM_COUNT>
0

> <PUBCHEM_COMPONENT_COUNT>
1

> <PUBCHEM_CACTVS_TAUTO_COUNT>
-1

> <PUBCHEM_COORDINATE_TYPE>
1
5
255

$$$$
