 
  -OEChem-10192103262D

 26 27  0     1  0  0  0  0  0999 V2000
    4.7078    0.6094    0.0000 O   0  0  0  0  0  0  0  0  0  0  0  0
    6.6051   -1.0043    0.0000 O   0  0  0  0  0  0  0  0  0  0  0  0
    4.3988   -1.9597    0.0000 O   0  0  0  0  0  0  0  0  0  0  0  0
    7.3494    1.2730    0.0000 O   0  0  0  0  0  0  0  0  0  0  0  0
    4.7928    1.8004    0.0000 O   0  0  0  0  0  0  0  0  0  0  0  0
    6.1588    2.1664    0.0000 O   0  0  0  0  0  0  0  0  0  0  0  0
    2.6200   -1.0656    0.0000 O   0  0  0  0  0  0  0  0  0  0  0  0
    2.6200    0.6664    0.0000 O   0  0  0  0  0  0  0  0  0  0  0  0
    5.6588    0.3004    0.0000 C   0  0  3  0  0  0  0  0  0  0  0  0
    5.6588   -0.6996    0.0000 C   0  0  1  0  0  0  0  0  0  0  0  0
    4.7078   -1.0086    0.0000 C   0  0  1  0  0  0  0  0  0  0  0  0
    6.6051    0.6051    0.0000 C   0  0  2  0  0  0  0  0  0  0  0  0
    4.1200   -0.1996    0.0000 C   0  0  3  0  0  0  0  0  0  0  0  0
    7.1887   -0.1996    0.0000 C   0  0  0  0  0  0  0  0  0  0  0  0
    5.6588    1.3004    0.0000 C   0  0  0  0  0  0  0  0  0  0  0  0
    3.1200   -0.1996    0.0000 C   0  0  0  0  0  0  0  0  0  0  0  0
    5.6600   -1.5496    0.0000 H   0  0  0  0  0  0  0  0  0  0  0  0
    4.0954   -1.1056    0.0000 H   0  0  0  0  0  0  0  0  0  0  0  0
    6.2962    1.1428    0.0000 H   0  0  0  0  0  0  0  0  0  0  0  0
    3.8385    0.3528    0.0000 H   0  0  0  0  0  0  0  0  0  0  0  0
    7.6495   -0.6143    0.0000 H   0  0  0  0  0  0  0  0  0  0  0  0
    7.6495    0.2151    0.0000 H   0  0  0  0  0  0  0  0  0  0  0  0
    4.8136   -2.4204    0.0000 H   0  0  0  0  0  0  0  0  0  0  0  0
    7.9387    1.0804    0.0000 H   0  0  0  0  0  0  0  0  0  0  0  0
    4.7928    2.4204    0.0000 H   0  0  0  0  0  0  0  0  0  0  0  0
    2.0000   -1.0656    0.0000 H   0  0  0  0  0  0  0  0  0  0  0  0
  1  9  1  0  0  0  0
  1 13  1  0  0  0  0
  2 10  1  0  0  0  0
  2 14  1  0  0  0  0
 11  3  1  6  0  0  0
  3 23  1  0  0  0  0
 12  4  1  1  0  0  0
  4 24  1  0  0  0  0
  5 15  1  0  0  0  0
  5 25  1  0  0  0  0
  6 15  2  0  0  0  0
  7 16  1  0  0  0  0
  7 26  1  0  0  0  0
  8 16  2  0  0  0  0
  9 10  1  0  0  0  0
  9 12  1  0  0  0  0
  9 15  1  0  0  0  0
 10 11  1  0  0  0  0
 10 17  1  1  0  0  0
 11 13  1  0  0  0  0
 11 18  1  0  0  0  0
 12 14  1  0  0  0  0
 12 19  1  0  0  0  0
 13 16  1  0  0  0  0
 13 20  1  0  0  0  0
 14 21  1  0  0  0  0
 14 22  1  0  0  0  0
M  END
> <PUBCHEM_COMPOUND_CID>
89906074

> <PUBCHEM_COMPOUND_CANONICALIZED>
1

> <PUBCHEM_CACTVS_COMPLEXITY>
341

> <PUBCHEM_CACTVS_HBOND_ACCEPTOR>
8

> <PUBCHEM_CACTVS_HBOND_DONOR>
4

> <PUBCHEM_CACTVS_ROTATABLE_BOND>
2

> <PUBCHEM_CACTVS_SUBSKEYS>
AAADccBwPAAAAAAAAAAAAAAAAAAAASJAAAAAAAAAAAASAAAAAAAAGgAACAAADFSggAIACAAABgAIAACQCAIAAAAAAAAAAAFAAAABEBYAAAQCQAAFIAADAAHK7DTOAAAAAAAAAAAAAAAAAAAAAAAAAAAAAA==

> <PUBCHEM_IUPAC_OPENEYE_NAME>
(3S,6S,6aR)-3,6-dihydroxy-3,5,6,6a-tetrahydro-2H-furo[3,2-b]furan-3a,5-dicarboxylic acid

> <PUBCHEM_IUPAC_CAS_NAME>
(3S,6S,6aR)-3,6-dihydroxy-3,5,6,6a-tetrahydro-2H-furo[3,2-b]furan-3a,5-dicarboxylic acid

> <PUBCHEM_IUPAC_NAME_MARKUP>
(3<I>S</I>,6<I>S</I>,6<I>a</I><I>R</I>)-3,6-dihydroxy-3,5,6,6<I>a</I>-tetrahydro-2<I>H</I>-furo[3,2-b]furan-3<I>a</I>,5-dicarboxylic acid

> <PUBCHEM_IUPAC_NAME>
(3S,6S,6aR)-3,6-dihydroxy-3,5,6,6a-tetrahydro-2H-furo[3,2-b]furan-3a,5-dicarboxylic acid

> <PUBCHEM_IUPAC_SYSTEMATIC_NAME>
(3S,6S,6aR)-3,6-bis(oxidanyl)-3,5,6,6a-tetrahydro-2H-furo[3,2-b]furan-3a,5-dicarboxylic acid

> <PUBCHEM_IUPAC_TRADITIONAL_NAME>
(3S,6S,6aR)-3,6-dihydroxy-3,5,6,6a-tetrahydro-2H-furo[3,2-b]furan-3a,5-dicarboxylic acid

> <PUBCHEM_IUPAC_INCHI>
InChI=1S/C8H10O8/c9-2-1-15-5-3(10)4(6(11)12)16-8(2,5)7(13)14/h2-5,9-10H,1H2,(H,11,12)(H,13,14)/t2-,3+,4?,5+,8?/m0/s1

> <PUBCHEM_IUPAC_INCHIKEY>
UCOUOKIAWCJKOH-JVKBKHGNSA-N

> <PUBCHEM_XLOGP3_AA>
-1.5

> <PUBCHEM_EXACT_MASS>
234.03756727

> <PUBCHEM_MOLECULAR_FORMULA>
C8H10O8

> <PUBCHEM_MOLECULAR_WEIGHT>
234.16

> <PUBCHEM_OPENEYE_CAN_SMILES>
C1C(C2(C(O1)C(C(O2)C(=O)O)O)C(=O)O)O

> <PUBCHEM_OPENEYE_ISO_SMILES>
C1[C@@H](C2([C@H](O1)[C@@H](C(O2)C(=O)O)O)C(=O)O)O

> <PUBCHEM_CACTVS_TPSA>
134

> <PUBCHEM_MONOISOTOPIC_WEIGHT>
234.03756727

> <PUBCHEM_TOTAL_CHARGE>
0

> <PUBCHEM_HEAVY_ATOM_COUNT>
16

> <PUBCHEM_ATOM_DEF_STEREO_COUNT>
3

> <PUBCHEM_ATOM_UDEF_STEREO_COUNT>
2

> <PUBCHEM_BOND_DEF_STEREO_COUNT>
0

> <PUBCHEM_BOND_UDEF_STEREO_COUNT>
0

> <PUBCHEM_ISOTOPIC_ATOM_COUNT>
0

> <PUBCHEM_COMPONENT_COUNT>
1

> <PUBCHEM_CACTVS_TAUTO_COUNT>
-1

> <PUBCHEM_COORDINATE_TYPE>
1
5
255

> <PUBCHEM_BONDANNOTATIONS>
10  17  5
13  16  3
11  3  6
12  4  5
9  15  3

$$$$
