 
  -OEChem-10192103342D

103108  0     1  0  0  0  0  0999 V2000
   12.1107    3.6688    0.0000 O   0  0  0  0  0  0  0  0  0  0  0  0
   11.4727    6.6704    0.0000 O   0  0  0  0  0  0  0  0  0  0  0  0
    7.7331    4.0755    0.0000 O   0  0  0  0  0  0  0  0  0  0  0  0
    9.4651    1.0755    0.0000 O   0  0  0  0  0  0  0  0  0  0  0  0
    7.7331    2.0755    0.0000 O   0  0  0  0  0  0  0  0  0  0  0  0
   15.9445    5.8209    0.0000 O   0  0  0  0  0  0  0  0  0  0  0  0
   15.5824    2.3758    0.0000 O   0  0  0  0  0  0  0  0  0  0  0  0
   16.7580    3.9938    0.0000 O   0  0  0  0  0  0  0  0  0  0  0  0
    5.1350   -3.4245    0.0000 O   0  0  0  0  0  0  0  0  0  0  0  0
    6.8671   -3.4245    0.0000 O   0  0  0  0  0  0  0  0  0  0  0  0
    5.1350   -6.4245    0.0000 O   0  0  0  0  0  0  0  0  0  0  0  0
    3.4030   -5.4245    0.0000 O   0  0  0  0  0  0  0  0  0  0  0  0
    6.8671   -5.4245    0.0000 O   0  0  0  0  0  0  0  0  0  0  0  0
    6.0010    1.0755    0.0000 O   0  0  0  0  0  0  0  0  0  0  0  0
    8.5991   -0.4245    0.0000 O   0  0  0  0  0  0  0  0  0  0  0  0
    2.5369   -3.9245    0.0000 O   0  0  0  0  0  0  0  0  0  0  0  0
    5.1350   -2.4245    0.0000 O   0  0  0  0  0  0  0  0  0  0  0  0
   11.3017    5.0701    0.0000 C   0  0  2  0  0  0  0  0  0  0  0  0
   12.2799    5.2780    0.0000 C   0  0  1  0  0  0  0  0  0  0  0  0
   11.1972    4.0755    0.0000 C   0  0  2  0  0  0  0  0  0  0  0  0
   12.7799    4.4119    0.0000 C   0  0  1  0  0  0  0  0  0  0  0  0
   10.8069    5.9322    0.0000 C   0  0  0  0  0  0  0  0  0  0  0  0
   12.3812    6.2669    0.0000 C   0  0  0  0  0  0  0  0  0  0  0  0
   10.3312    3.5755    0.0000 C   0  0  0  0  0  0  0  0  0  0  0  0
   13.7744    4.3074    0.0000 C   0  0  0  0  0  0  0  0  0  0  0  0
   10.3312    2.5755    0.0000 C   0  0  0  0  0  0  0  0  0  0  0  0
    9.4651    4.0755    0.0000 C   0  0  0  0  0  0  0  0  0  0  0  0
   14.1811    3.3939    0.0000 C   0  0  0  0  0  0  0  0  0  0  0  0
   14.3622    5.1164    0.0000 C   0  0  0  0  0  0  0  0  0  0  0  0
    8.5991    3.5755    0.0000 C   0  0  0  0  0  0  0  0  0  0  0  0
    9.4651    2.0755    0.0000 C   0  0  0  0  0  0  0  0  0  0  0  0
   15.3567    5.0119    0.0000 C   0  0  0  0  0  0  0  0  0  0  0  0
   15.1756    3.2893    0.0000 C   0  0  0  0  0  0  0  0  0  0  0  0
    8.5991    2.5755    0.0000 C   0  0  0  0  0  0  0  0  0  0  0  0
   15.7634    4.0984    0.0000 C   0  0  0  0  0  0  0  0  0  0  0  0
    7.7331    1.0755    0.0000 C   0  0  1  0  0  0  0  0  0  0  0  0
    5.1350   -5.4245    0.0000 C   0  0  1  0  0  0  0  0  0  0  0  0
    4.2690   -4.9245    0.0000 C   0  0  1  0  0  0  0  0  0  0  0  0
    6.0010   -4.9245    0.0000 C   0  0  2  0  0  0  0  0  0  0  0  0
    4.2690   -3.9245    0.0000 C   0  0  1  0  0  0  0  0  0  0  0  0
    6.0010   -3.9245    0.0000 C   0  0  1  0  0  0  0  0  0  0  0  0
    6.8671    0.5755    0.0000 C   0  0  2  0  0  0  0  0  0  0  0  0
    7.7331    5.0755    0.0000 C   0  0  0  0  0  0  0  0  0  0  0  0
   10.3312    0.5755    0.0000 C   0  0  0  0  0  0  0  0  0  0  0  0
   15.5377    6.7345    0.0000 C   0  0  0  0  0  0  0  0  0  0  0  0
   16.5769    2.2713    0.0000 C   0  0  0  0  0  0  0  0  0  0  0  0
    8.5991    0.5755    0.0000 C   0  0  0  0  0  0  0  0  0  0  0  0
    3.4030   -3.4245    0.0000 C   0  0  0  0  0  0  0  0  0  0  0  0
    6.8671   -0.4245    0.0000 C   0  0  0  0  0  0  0  0  0  0  0  0
    6.8671   -2.4245    0.0000 C   0  0  0  0  0  0  0  0  0  0  0  0
    6.0010   -0.9245    0.0000 C   0  0  0  0  0  0  0  0  0  0  0  0
    7.7331   -0.9245    0.0000 C   0  0  0  0  0  0  0  0  0  0  0  0
    6.0010   -1.9245    0.0000 C   0  0  0  0  0  0  0  0  0  0  0  0
    7.7331   -1.9245    0.0000 C   0  0  0  0  0  0  0  0  0  0  0  0
    4.2690   -1.9245    0.0000 C   0  0  0  0  0  0  0  0  0  0  0  0
   10.4701    4.8944    0.0000 H   0  0  0  0  0  0  0  0  0  0  0  0
   13.1111    5.4558    0.0000 H   0  0  0  0  0  0  0  0  0  0  0  0
   11.2296    3.4564    0.0000 H   0  0  0  0  0  0  0  0  0  0  0  0
   13.0021    3.8331    0.0000 H   0  0  0  0  0  0  0  0  0  0  0  0
   10.3927    6.3936    0.0000 H   0  0  0  0  0  0  0  0  0  0  0  0
   10.3046    5.5688    0.0000 H   0  0  0  0  0  0  0  0  0  0  0  0
   12.9879    6.1392    0.0000 H   0  0  0  0  0  0  0  0  0  0  0  0
   12.5719    6.8568    0.0000 H   0  0  0  0  0  0  0  0  0  0  0  0
   10.8681    2.2655    0.0000 H   0  0  0  0  0  0  0  0  0  0  0  0
    9.4651    4.6955    0.0000 H   0  0  0  0  0  0  0  0  0  0  0  0
   13.8167    2.8923    0.0000 H   0  0  0  0  0  0  0  0  0  0  0  0
   14.1100    5.6828    0.0000 H   0  0  0  0  0  0  0  0  0  0  0  0
    7.1962    1.3855    0.0000 H   0  0  0  0  0  0  0  0  0  0  0  0
    5.6720   -5.7345    0.0000 H   0  0  0  0  0  0  0  0  0  0  0  0
    3.7320   -4.6145    0.0000 H   0  0  0  0  0  0  0  0  0  0  0  0
    6.5380   -4.6145    0.0000 H   0  0  0  0  0  0  0  0  0  0  0  0
    4.2690   -3.3045    0.0000 H   0  0  0  0  0  0  0  0  0  0  0  0
   17.1224    4.4954    0.0000 H   0  0  0  0  0  0  0  0  0  0  0  0
    6.0010   -3.3045    0.0000 H   0  0  0  0  0  0  0  0  0  0  0  0
    6.3301    0.2655    0.0000 H   0  0  0  0  0  0  0  0  0  0  0  0
    8.3531    5.0755    0.0000 H   0  0  0  0  0  0  0  0  0  0  0  0
    7.7331    5.6955    0.0000 H   0  0  0  0  0  0  0  0  0  0  0  0
    7.1131    5.0755    0.0000 H   0  0  0  0  0  0  0  0  0  0  0  0
   10.0212    0.0386    0.0000 H   0  0  0  0  0  0  0  0  0  0  0  0
   10.8681    0.2655    0.0000 H   0  0  0  0  0  0  0  0  0  0  0  0
   10.6412    1.1125    0.0000 H   0  0  0  0  0  0  0  0  0  0  0  0
   16.1041    6.9866    0.0000 H   0  0  0  0  0  0  0  0  0  0  0  0
   15.2856    7.3009    0.0000 H   0  0  0  0  0  0  0  0  0  0  0  0
   14.9713    6.4823    0.0000 H   0  0  0  0  0  0  0  0  0  0  0  0
   16.5121    1.6547    0.0000 H   0  0  0  0  0  0  0  0  0  0  0  0
   17.1935    2.2065    0.0000 H   0  0  0  0  0  0  0  0  0  0  0  0
   16.6417    2.8879    0.0000 H   0  0  0  0  0  0  0  0  0  0  0  0
    9.2097    0.4679    0.0000 H   0  0  0  0  0  0  0  0  0  0  0  0
    8.8112    1.1581    0.0000 H   0  0  0  0  0  0  0  0  0  0  0  0
    3.8015   -2.9495    0.0000 H   0  0  0  0  0  0  0  0  0  0  0  0
    3.0044   -2.9495    0.0000 H   0  0  0  0  0  0  0  0  0  0  0  0
    5.6720   -6.7345    0.0000 H   0  0  0  0  0  0  0  0  0  0  0  0
    3.4030   -6.0445    0.0000 H   0  0  0  0  0  0  0  0  0  0  0  0
    7.4040   -5.1145    0.0000 H   0  0  0  0  0  0  0  0  0  0  0  0
    5.4641   -0.6145    0.0000 H   0  0  0  0  0  0  0  0  0  0  0  0
    8.2700   -0.6145    0.0000 H   0  0  0  0  0  0  0  0  0  0  0  0
    6.0010    1.6955    0.0000 H   0  0  0  0  0  0  0  0  0  0  0  0
    8.2700   -2.2345    0.0000 H   0  0  0  0  0  0  0  0  0  0  0  0
    9.1360   -0.7345    0.0000 H   0  0  0  0  0  0  0  0  0  0  0  0
    2.0000   -3.6145    0.0000 H   0  0  0  0  0  0  0  0  0  0  0  0
    4.5790   -1.3875    0.0000 H   0  0  0  0  0  0  0  0  0  0  0  0
    3.7320   -1.6145    0.0000 H   0  0  0  0  0  0  0  0  0  0  0  0
    3.9590   -2.4614    0.0000 H   0  0  0  0  0  0  0  0  0  0  0  0
  1 20  1  0  0  0  0
  1 21  1  0  0  0  0
  2 22  1  0  0  0  0
  2 23  1  0  0  0  0
  3 30  1  0  0  0  0
  3 43  1  0  0  0  0
  4 31  1  0  0  0  0
  4 44  1  0  0  0  0
  5 34  1  0  0  0  0
 36  5  1  6  0  0  0
  6 32  1  0  0  0  0
  6 45  1  0  0  0  0
  7 33  1  0  0  0  0
  7 46  1  0  0  0  0
  8 35  1  0  0  0  0
  8 73  1  0  0  0  0
  9 40  1  0  0  0  0
  9 41  1  0  0  0  0
 41 10  1  1  0  0  0
 10 50  1  0  0  0  0
 37 11  1  1  0  0  0
 11 92  1  0  0  0  0
 38 12  1  6  0  0  0
 12 93  1  0  0  0  0
 39 13  1  6  0  0  0
 13 94  1  0  0  0  0
 42 14  1  6  0  0  0
 14 97  1  0  0  0  0
 15 47  1  0  0  0  0
 15 99  1  0  0  0  0
 16 48  1  0  0  0  0
 16100  1  0  0  0  0
 17 53  1  0  0  0  0
 17 55  1  0  0  0  0
 18 19  1  0  0  0  0
 18 20  1  0  0  0  0
 18 22  1  0  0  0  0
 18 56  1  1  0  0  0
 19 21  1  0  0  0  0
 19 23  1  0  0  0  0
 19 57  1  1  0  0  0
 20 24  1  1  0  0  0
 20 58  1  0  0  0  0
 21 25  1  1  0  0  0
 21 59  1  0  0  0  0
 22 60  1  0  0  0  0
 22 61  1  0  0  0  0
 23 62  1  0  0  0  0
 23 63  1  0  0  0  0
 24 26  2  0  0  0  0
 24 27  1  0  0  0  0
 25 28  2  0  0  0  0
 25 29  1  0  0  0  0
 26 31  1  0  0  0  0
 26 64  1  0  0  0  0
 27 30  2  0  0  0  0
 27 65  1  0  0  0  0
 28 33  1  0  0  0  0
 28 66  1  0  0  0  0
 29 32  2  0  0  0  0
 29 67  1  0  0  0  0
 30 34  1  0  0  0  0
 31 34  2  0  0  0  0
 32 35  1  0  0  0  0
 33 35  2  0  0  0  0
 36 42  1  0  0  0  0
 36 47  1  0  0  0  0
 36 68  1  0  0  0  0
 37 38  1  0  0  0  0
 37 39  1  0  0  0  0
 37 69  1  0  0  0  0
 38 40  1  0  0  0  0
 38 70  1  0  0  0  0
 39 41  1  0  0  0  0
 39 71  1  0  0  0  0
 40 48  1  1  0  0  0
 40 72  1  0  0  0  0
 41 74  1  0  0  0  0
 42 49  1  0  0  0  0
 42 75  1  0  0  0  0
 43 76  1  0  0  0  0
 43 77  1  0  0  0  0
 43 78  1  0  0  0  0
 44 79  1  0  0  0  0
 44 80  1  0  0  0  0
 44 81  1  0  0  0  0
 45 82  1  0  0  0  0
 45 83  1  0  0  0  0
 45 84  1  0  0  0  0
 46 85  1  0  0  0  0
 46 86  1  0  0  0  0
 46 87  1  0  0  0  0
 47 88  1  0  0  0  0
 47 89  1  0  0  0  0
 48 90  1  0  0  0  0
 48 91  1  0  0  0  0
 49 51  2  0  0  0  0
 49 52  1  0  0  0  0
 50 53  2  0  0  0  0
 50 54  1  0  0  0  0
 51 53  1  0  0  0  0
 51 95  1  0  0  0  0
 52 54  2  0  0  0  0
 52 96  1  0  0  0  0
 54 98  1  0  0  0  0
 55101  1  0  0  0  0
 55102  1  0  0  0  0
 55103  1  0  0  0  0
M  END
> <PUBCHEM_COMPOUND_CID>
101937519

> <PUBCHEM_COMPOUND_CANONICALIZED>
1

> <PUBCHEM_CACTVS_COMPLEXITY>
1140

> <PUBCHEM_CACTVS_HBOND_ACCEPTOR>
17

> <PUBCHEM_CACTVS_HBOND_DONOR>
7

> <PUBCHEM_CACTVS_ROTATABLE_BOND>
15

> <PUBCHEM_CACTVS_SUBSKEYS>
AAADcfB8PgAAAAAAAAAAAAAAAAAAASJAAAA0YMEAAAASAAABUAAAGgAACAAADRSwmAMyDoAABgCAAiBCAAACCAAgIAAIiAAGiIgdNyKGMRqieCOlwBUPuAfA4PwOoAABCAAAQABAAAIQAACAAAAAAAAAAA==

> <PUBCHEM_IUPAC_OPENEYE_NAME>
(2S,3R,4S,5S,6R)-2-[4-[(1S,2R)-2-[4-[(3aS,4R,6S,6aR)-6-(4-hydroxy-3,5-dimethoxy-phenyl)-1,3,3a,4,6,6a-hexahydrofuro[3,4-c]furan-4-yl]-2,6-dimethoxy-phenoxy]-1,3-dihydroxy-propyl]-2-methoxy-phenoxy]-6-(hydroxymethyl)tetrahydropyran-3,4,5-triol

> <PUBCHEM_IUPAC_CAS_NAME>
(2S,3R,4S,5S,6R)-2-[4-[(1S,2R)-2-[4-[(3aS,4R,6S,6aR)-6-(4-hydroxy-3,5-dimethoxyphenyl)-1,3,3a,4,6,6a-hexahydrofuro[3,4-c]furan-4-yl]-2,6-dimethoxyphenoxy]-1,3-dihydroxypropyl]-2-methoxyphenoxy]-6-(hydroxymethyl)oxane-3,4,5-triol

> <PUBCHEM_IUPAC_NAME_MARKUP>
(2<I>S</I>,3<I>R</I>,4<I>S</I>,5<I>S</I>,6<I>R</I>)-2-[4-[(1<I>S</I>,2<I>R</I>)-2-[4-[(3<I>a</I><I>S</I>,4<I>R</I>,6<I>S</I>,6<I>a</I><I>R</I>)-6-(4-hydroxy-3,5-dimethoxyphenyl)-1,3,3<I>a</I>,4,6,6<I>a</I>-hexahydrofuro[3,4-c]furan-4-yl]-2,6-dimethoxyphenoxy]-1,3-dihydroxypropyl]-2-methoxyphenoxy]-6-(hydroxymethyl)oxane-3,4,5-triol

> <PUBCHEM_IUPAC_NAME>
(2S,3R,4S,5S,6R)-2-[4-[(1S,2R)-2-[4-[(3aS,4R,6S,6aR)-6-(4-hydroxy-3,5-dimethoxyphenyl)-1,3,3a,4,6,6a-hexahydrofuro[3,4-c]furan-4-yl]-2,6-dimethoxyphenoxy]-1,3-dihydroxypropyl]-2-methoxyphenoxy]-6-(hydroxymethyl)oxane-3,4,5-triol

> <PUBCHEM_IUPAC_SYSTEMATIC_NAME>
(2S,3R,4S,5S,6R)-2-[4-[(1S,2R)-2-[4-[(3aS,4R,6S,6aR)-6-(3,5-dimethoxy-4-oxidanyl-phenyl)-1,3,3a,4,6,6a-hexahydrofuro[3,4-c]furan-4-yl]-2,6-dimethoxy-phenoxy]-1,3-bis(oxidanyl)propyl]-2-methoxy-phenoxy]-6-(hydroxymethyl)oxane-3,4,5-triol

> <PUBCHEM_IUPAC_TRADITIONAL_NAME>
(2S,3R,4S,5S,6R)-2-[4-[(1S,2R)-2-[4-[(3aS,4R,6S,6aR)-6-(4-hydroxy-3,5-dimethoxy-phenyl)-1,3,3a,4,6,6a-hexahydrofuro[3,4-c]furan-4-yl]-2,6-dimethoxy-phenoxy]-1,3-dihydroxy-propyl]-2-methoxy-phenoxy]-6-methylol-tetrahydropyran-3,4,5-triol

> <PUBCHEM_IUPAC_INCHI>
InChI=1S/C38H48O17/c1-46-23-8-17(6-7-22(23)53-38-34(45)33(44)32(43)29(14-40)54-38)30(41)28(13-39)52-37-26(49-4)11-19(12-27(37)50-5)36-21-16-51-15-20(21)35(55-36)18-9-24(47-2)31(42)25(10-18)48-3/h6-12,20-21,28-30,32-36,38-45H,13-16H2,1-5H3/t20-,21+,28+,29+,30-,32+,33-,34+,35+,36-,38+/m0/s1

> <PUBCHEM_IUPAC_INCHIKEY>
PDWXEJPIHZWMQN-FNZQMGRXSA-N

> <PUBCHEM_XLOGP3_AA>
0.6

> <PUBCHEM_EXACT_MASS>
776.28915006

> <PUBCHEM_MOLECULAR_FORMULA>
C38H48O17

> <PUBCHEM_MOLECULAR_WEIGHT>
776.8

> <PUBCHEM_OPENEYE_CAN_SMILES>
COC1=CC(=CC(=C1O)OC)C2C3COCC3C(O2)C4=CC(=C(C(=C4)OC)OC(CO)C(C5=CC(=C(C=C5)OC6C(C(C(C(O6)CO)O)O)O)OC)O)OC

> <PUBCHEM_OPENEYE_ISO_SMILES>
COC1=CC(=CC(=C1O)OC)[C@@H]2[C@H]3COC[C@H]3[C@@H](O2)C4=CC(=C(C(=C4)OC)O[C@H](CO)[C@H](C5=CC(=C(C=C5)O[C@H]6[C@@H]([C@H]([C@@H]([C@H](O6)CO)O)O)O)OC)O)OC

> <PUBCHEM_CACTVS_TPSA>
234

> <PUBCHEM_MONOISOTOPIC_WEIGHT>
776.28915006

> <PUBCHEM_TOTAL_CHARGE>
0

> <PUBCHEM_HEAVY_ATOM_COUNT>
55

> <PUBCHEM_ATOM_DEF_STEREO_COUNT>
11

> <PUBCHEM_ATOM_UDEF_STEREO_COUNT>
0

> <PUBCHEM_BOND_DEF_STEREO_COUNT>
0

> <PUBCHEM_BOND_UDEF_STEREO_COUNT>
0

> <PUBCHEM_ISOTOPIC_ATOM_COUNT>
0

> <PUBCHEM_COMPONENT_COUNT>
1

> <PUBCHEM_CACTVS_TAUTO_COUNT>
-1

> <PUBCHEM_COORDINATE_TYPE>
1
5
255

> <PUBCHEM_BONDANNOTATIONS>
41  10  5
37  11  5
38  12  6
39  13  6
42  14  6
18  56  5
19  57  5
20  24  5
21  25  5
24  26  8
24  27  8
25  28  8
25  29  8
26  31  8
27  30  8
28  33  8
29  32  8
30  34  8
31  34  8
32  35  8
33  35  8
40  48  5
49  51  8
49  52  8
36  5  6
50  53  8
50  54  8
51  53  8
52  54  8

$$$$
