 
  -OEChem-10192104172D

 24 23  0     1  0  0  0  0  0999 V2000
    5.1350    2.0950    0.0000 O   0  0  0  0  0  0  0  0  0  0  0  0
    3.4030   -1.9050    0.0000 O   0  0  0  0  0  0  0  0  0  0  0  0
    2.5369    0.5950    0.0000 O   0  0  0  0  0  0  0  0  0  0  0  0
    3.4030    2.0950    0.0000 O   0  0  0  0  0  0  0  0  0  0  0  0
    6.8671    1.0950    0.0000 O   0  0  0  0  0  0  0  0  0  0  0  0
    2.5369   -0.4050    0.0000 O   0  0  0  0  0  0  0  0  0  0  0  0
    6.0010   -0.4050    0.0000 O   0  0  0  0  0  0  0  0  0  0  0  0
    4.2690    0.5950    0.0000 C   0  0  3  0  0  0  0  0  0  0  0  0
    5.1350    1.0950    0.0000 C   0  0  3  0  0  0  0  0  0  0  0  0
    4.2690   -0.4050    0.0000 C   0  0  0  0  0  0  0  0  0  0  0  0
    3.4030    1.0950    0.0000 C   0  0  0  0  0  0  0  0  0  0  0  0
    3.4030   -0.9050    0.0000 C   0  0  0  0  0  0  0  0  0  0  0  0
    6.0010    0.5950    0.0000 C   0  0  0  0  0  0  0  0  0  0  0  0
    2.5369   -2.4050    0.0000 C   0  0  0  0  0  0  0  0  0  0  0  0
    4.2690    1.2150    0.0000 H   0  0  0  0  0  0  0  0  0  0  0  0
    5.6720    1.4050    0.0000 H   0  0  0  0  0  0  0  0  0  0  0  0
    4.4810   -0.9876    0.0000 H   0  0  0  0  0  0  0  0  0  0  0  0
    4.8796   -0.2973    0.0000 H   0  0  0  0  0  0  0  0  0  0  0  0
    5.6720    2.4050    0.0000 H   0  0  0  0  0  0  0  0  0  0  0  0
    2.0000    0.9050    0.0000 H   0  0  0  0  0  0  0  0  0  0  0  0
    7.4040    0.7850    0.0000 H   0  0  0  0  0  0  0  0  0  0  0  0
    2.2269   -1.8681    0.0000 H   0  0  0  0  0  0  0  0  0  0  0  0
    2.0000   -2.7150    0.0000 H   0  0  0  0  0  0  0  0  0  0  0  0
    2.8469   -2.9419    0.0000 H   0  0  0  0  0  0  0  0  0  0  0  0
  1  9  1  0  0  0  0
  1 19  1  0  0  0  0
  2 12  1  0  0  0  0
  2 14  1  0  0  0  0
  3 11  1  0  0  0  0
  3 20  1  0  0  0  0
  4 11  2  0  0  0  0
  5 13  1  0  0  0  0
  5 21  1  0  0  0  0
  6 12  2  0  0  0  0
  7 13  2  0  0  0  0
  8  9  1  0  0  0  0
  8 10  1  0  0  0  0
  8 11  1  0  0  0  0
  8 15  1  0  0  0  0
  9 13  1  0  0  0  0
  9 16  1  0  0  0  0
 10 12  1  0  0  0  0
 10 17  1  0  0  0  0
 10 18  1  0  0  0  0
 14 22  1  0  0  0  0
 14 23  1  0  0  0  0
 14 24  1  0  0  0  0
M  END
> <PUBCHEM_COMPOUND_CID>
87535568

> <PUBCHEM_COMPOUND_CANONICALIZED>
1

> <PUBCHEM_CACTVS_COMPLEXITY>
246

> <PUBCHEM_CACTVS_HBOND_ACCEPTOR>
7

> <PUBCHEM_CACTVS_HBOND_DONOR>
3

> <PUBCHEM_CACTVS_ROTATABLE_BOND>
6

> <PUBCHEM_CACTVS_SUBSKEYS>
AAADccBgOAAAAAAAAAAAAAAAAAAAAAAAAAAAAAAAAAAAAAAAAAAAGgAACAAADRSggAICCAAABgAIAACQCAIAAAAAAAAAAAFAAAABEBYAAAAAQAAFIAABAADLJggKAAAAAAAAAAAAAAAAAAAAAAAAAAAAAA==

> <PUBCHEM_IUPAC_OPENEYE_NAME>
2-hydroxy-3-(2-methoxy-2-oxo-ethyl)butanedioic acid

> <PUBCHEM_IUPAC_CAS_NAME>
2-hydroxy-3-(2-methoxy-2-oxoethyl)butanedioic acid

> <PUBCHEM_IUPAC_NAME_MARKUP>
2-hydroxy-3-(2-methoxy-2-oxoethyl)butanedioic acid

> <PUBCHEM_IUPAC_NAME>
2-hydroxy-3-(2-methoxy-2-oxoethyl)butanedioic acid

> <PUBCHEM_IUPAC_SYSTEMATIC_NAME>
2-(2-methoxy-2-oxidanylidene-ethyl)-3-oxidanyl-butanedioic acid

> <PUBCHEM_IUPAC_TRADITIONAL_NAME>
2-hydroxy-3-(2-keto-2-methoxy-ethyl)succinic acid

> <PUBCHEM_IUPAC_INCHI>
InChI=1S/C7H10O7/c1-14-4(8)2-3(6(10)11)5(9)7(12)13/h3,5,9H,2H2,1H3,(H,10,11)(H,12,13)

> <PUBCHEM_IUPAC_INCHIKEY>
USDNKXCSPJZSBJ-UHFFFAOYSA-N

> <PUBCHEM_XLOGP3_AA>
-1.5

> <PUBCHEM_EXACT_MASS>
206.04265265

> <PUBCHEM_MOLECULAR_FORMULA>
C7H10O7

> <PUBCHEM_MOLECULAR_WEIGHT>
206.15

> <PUBCHEM_OPENEYE_CAN_SMILES>
COC(=O)CC(C(C(=O)O)O)C(=O)O

> <PUBCHEM_OPENEYE_ISO_SMILES>
COC(=O)CC(C(C(=O)O)O)C(=O)O

> <PUBCHEM_CACTVS_TPSA>
121

> <PUBCHEM_MONOISOTOPIC_WEIGHT>
206.04265265

> <PUBCHEM_TOTAL_CHARGE>
0

> <PUBCHEM_HEAVY_ATOM_COUNT>
14

> <PUBCHEM_ATOM_DEF_STEREO_COUNT>
0

> <PUBCHEM_ATOM_UDEF_STEREO_COUNT>
2

> <PUBCHEM_BOND_DEF_STEREO_COUNT>
0

> <PUBCHEM_BOND_UDEF_STEREO_COUNT>
0

> <PUBCHEM_ISOTOPIC_ATOM_COUNT>
0

> <PUBCHEM_COMPONENT_COUNT>
1

> <PUBCHEM_CACTVS_TAUTO_COUNT>
-1

> <PUBCHEM_COORDINATE_TYPE>
1
5
255

> <PUBCHEM_BONDANNOTATIONS>
9  1  3
8  10  3

$$$$
