 
  -OEChem-10192103412D

112114  0     1  0  0  0  0  0999 V2000
    4.6318    0.5381    0.0000 O   0  0  0  0  0  0  0  0  0  0  0  0
    6.3246   -2.6453    0.0000 O   0  0  0  0  0  0  0  0  0  0  0  0
    6.5422    3.5959    0.0000 O   0  0  0  0  0  0  0  0  0  0  0  0
    9.9280   -2.7710    0.0000 O   0  0  0  0  0  0  0  0  0  0  0  0
   10.9065   -2.5648    0.0000 O   0  0  0  0  0  0  0  0  0  0  0  0
   14.5098   -2.6904    0.0000 O   0  0  0  0  0  0  0  0  0  0  0  0
   14.1527   -0.9956    0.0000 O   0  0  0  0  0  0  0  0  0  0  0  0
    6.2781   -0.0000    0.0000 N   0  0  0  0  0  0  0  0  0  0  0  0
    5.2531    2.4391    0.0000 N   0  0  0  0  0  0  0  0  0  0  0  0
    7.6138   -1.4886    0.0000 N   0  0  0  0  0  0  0  0  0  0  0  0
    9.5708   -1.0762    0.0000 N   0  0  0  0  0  0  0  0  0  0  0  0
    4.6783   -3.7167    0.0000 N   0  0  0  0  0  0  0  0  0  0  0  0
    5.2066    5.0845    0.0000 N   0  0  0  0  0  0  0  0  0  0  0  0
   12.1957   -1.4080    0.0000 N   0  0  0  0  0  0  0  0  0  0  0  0
   13.2991    1.1056    0.0000 N   0  0  0  0  0  0  0  0  0  0  0  0
   13.8372    2.7520    0.0000 N   0  0  0  0  0  0  0  0  0  0  0  0
   12.1424    2.3948    0.0000 N   0  0  0  0  0  0  0  0  0  0  0  0
    5.9209    1.6948    0.0000 C   0  0  1  0  0  0  0  0  0  0  0  0
    6.8994    1.9010    0.0000 C   0  0  0  0  0  0  0  0  0  0  0  0
    5.9674   -0.9505    0.0000 C   0  0  1  0  0  0  0  0  0  0  0  0
    4.9889   -1.1567    0.0000 C   0  0  0  0  0  0  0  0  0  0  0  0
    5.6103    0.7443    0.0000 C   0  0  0  0  0  0  0  0  0  0  0  0
    4.8959    4.1339    0.0000 C   0  0  1  0  0  0  0  0  0  0  0  0
    3.9174    3.9277    0.0000 C   0  0  0  0  0  0  0  0  0  0  0  0
    4.6783   -2.1073    0.0000 C   0  0  0  0  0  0  0  0  0  0  0  0
    8.2816   -2.2329    0.0000 C   0  0  1  0  0  0  0  0  0  0  0  0
    6.6353   -1.6948    0.0000 C   0  0  0  0  0  0  0  0  0  0  0  0
    3.2496    4.6720    0.0000 C   0  0  0  0  0  0  0  0  0  0  0  0
    5.5637    3.3896    0.0000 C   0  0  0  0  0  0  0  0  0  0  0  0
    7.2101    2.8516    0.0000 C   0  0  0  0  0  0  0  0  0  0  0  0
    7.5673    1.1567    0.0000 C   0  0  0  0  0  0  0  0  0  0  0  0
    3.7320   -2.4120    0.0000 C   0  0  0  0  0  0  0  0  0  0  0  0
    7.9710   -3.1834    0.0000 C   0  0  0  0  0  0  0  0  0  0  0  0
   10.5493   -0.8699    0.0000 C   0  0  1  0  0  0  0  0  0  0  0  0
    5.2619   -2.9120    0.0000 C   0  0  0  0  0  0  0  0  0  0  0  0
    9.2601   -2.0267    0.0000 C   0  0  0  0  0  0  0  0  0  0  0  0
    3.7320   -3.4120    0.0000 C   0  0  0  0  0  0  0  0  0  0  0  0
   10.8600    0.0806    0.0000 C   0  0  0  0  0  0  0  0  0  0  0  0
    3.5602    5.6226    0.0000 C   0  0  0  0  0  0  0  0  0  0  0  0
    2.2710    4.4658    0.0000 C   0  0  0  0  0  0  0  0  0  0  0  0
    8.6388   -3.9277    0.0000 C   0  0  0  0  0  0  0  0  0  0  0  0
    2.8660   -1.9120    0.0000 C   0  0  0  0  0  0  0  0  0  0  0  0
   11.6043    0.7484    0.0000 C   0  0  0  0  0  0  0  0  0  0  0  0
    2.8660   -3.9120    0.0000 C   0  0  0  0  0  0  0  0  0  0  0  0
   11.2171   -1.6142    0.0000 C   0  0  0  0  0  0  0  0  0  0  0  0
    2.0000   -2.4120    0.0000 C   0  0  0  0  0  0  0  0  0  0  0  0
    2.0000   -3.4120    0.0000 C   0  0  0  0  0  0  0  0  0  0  0  0
   12.5548    0.4378    0.0000 C   0  0  0  0  0  0  0  0  0  0  0  0
    9.6173   -3.7215    0.0000 C   0  0  0  0  0  0  0  0  0  0  0  0
    8.3282   -4.8783    0.0000 C   0  0  0  0  0  0  0  0  0  0  0  0
   10.2852   -4.4658    0.0000 C   0  0  0  0  0  0  0  0  0  0  0  0
    8.9960   -5.6226    0.0000 C   0  0  0  0  0  0  0  0  0  0  0  0
    9.9745   -5.4163    0.0000 C   0  0  0  0  0  0  0  0  0  0  0  0
   12.8635   -2.1523    0.0000 C   0  0  0  0  0  0  0  0  0  0  0  0
   13.8420   -1.9461    0.0000 C   0  0  0  0  0  0  0  0  0  0  0  0
   13.0929    2.0841    0.0000 C   0  0  0  0  0  0  0  0  0  0  0  0
    6.1135    2.2841    0.0000 H   0  0  0  0  0  0  0  0  0  0  0  0
    7.5061    2.0289    0.0000 H   0  0  0  0  0  0  0  0  0  0  0  0
    5.5534   -0.4891    0.0000 H   0  0  0  0  0  0  0  0  0  0  0  0
    4.9684   -0.5371    0.0000 H   0  0  0  0  0  0  0  0  0  0  0  0
    4.3751   -1.0694    0.0000 H   0  0  0  0  0  0  0  0  0  0  0  0
    6.8848    0.1279    0.0000 H   0  0  0  0  0  0  0  0  0  0  0  0
    5.5026    4.2618    0.0000 H   0  0  0  0  0  0  0  0  0  0  0  0
    4.6464    2.3113    0.0000 H   0  0  0  0  0  0  0  0  0  0  0  0
    3.3910    3.6001    0.0000 H   0  0  0  0  0  0  0  0  0  0  0  0
    4.1486    3.3525    0.0000 H   0  0  0  0  0  0  0  0  0  0  0  0
    8.4742   -1.6436    0.0000 H   0  0  0  0  0  0  0  0  0  0  0  0
    3.8562    4.7999    0.0000 H   0  0  0  0  0  0  0  0  0  0  0  0
    7.7994    2.6590    0.0000 H   0  0  0  0  0  0  0  0  0  0  0  0
    7.4027    3.4409    0.0000 H   0  0  0  0  0  0  0  0  0  0  0  0
    6.6208    3.0442    0.0000 H   0  0  0  0  0  0  0  0  0  0  0  0
    7.1058    0.7427    0.0000 H   0  0  0  0  0  0  0  0  0  0  0  0
    7.9813    0.6953    0.0000 H   0  0  0  0  0  0  0  0  0  0  0  0
    8.0287    1.5708    0.0000 H   0  0  0  0  0  0  0  0  0  0  0  0
    7.8064   -0.8993    0.0000 H   0  0  0  0  0  0  0  0  0  0  0  0
    7.4240   -2.8914    0.0000 H   0  0  0  0  0  0  0  0  0  0  0  0
    7.5884   -3.6713    0.0000 H   0  0  0  0  0  0  0  0  0  0  0  0
   10.3567   -1.4593    0.0000 H   0  0  0  0  0  0  0  0  0  0  0  0
    5.8819   -2.9120    0.0000 H   0  0  0  0  0  0  0  0  0  0  0  0
   10.6287    0.6558    0.0000 H   0  0  0  0  0  0  0  0  0  0  0  0
   11.3794   -0.2580    0.0000 H   0  0  0  0  0  0  0  0  0  0  0  0
    9.1567   -0.6147    0.0000 H   0  0  0  0  0  0  0  0  0  0  0  0
    4.1495    5.4299    0.0000 H   0  0  0  0  0  0  0  0  0  0  0  0
    3.7528    6.2119    0.0000 H   0  0  0  0  0  0  0  0  0  0  0  0
    2.9709    5.8152    0.0000 H   0  0  0  0  0  0  0  0  0  0  0  0
    2.1432    5.0725    0.0000 H   0  0  0  0  0  0  0  0  0  0  0  0
    1.6644    4.3380    0.0000 H   0  0  0  0  0  0  0  0  0  0  0  0
    2.3989    3.8591    0.0000 H   0  0  0  0  0  0  0  0  0  0  0  0
    4.8709   -4.3060    0.0000 H   0  0  0  0  0  0  0  0  0  0  0  0
    4.7925    5.5459    0.0000 H   0  0  0  0  0  0  0  0  0  0  0  0
    5.8132    5.2123    0.0000 H   0  0  0  0  0  0  0  0  0  0  0  0
    2.8660   -1.2920    0.0000 H   0  0  0  0  0  0  0  0  0  0  0  0
   11.8963    1.2953    0.0000 H   0  0  0  0  0  0  0  0  0  0  0  0
   11.1164    1.1310    0.0000 H   0  0  0  0  0  0  0  0  0  0  0  0
    2.8660   -4.5320    0.0000 H   0  0  0  0  0  0  0  0  0  0  0  0
    1.4631   -2.1020    0.0000 H   0  0  0  0  0  0  0  0  0  0  0  0
    1.4631   -3.7220    0.0000 H   0  0  0  0  0  0  0  0  0  0  0  0
   12.2628   -0.1092    0.0000 H   0  0  0  0  0  0  0  0  0  0  0  0
   13.0427    0.0552    0.0000 H   0  0  0  0  0  0  0  0  0  0  0  0
    9.8099   -3.1322    0.0000 H   0  0  0  0  0  0  0  0  0  0  0  0
    7.7215   -5.0061    0.0000 H   0  0  0  0  0  0  0  0  0  0  0  0
   12.3883   -0.8187    0.0000 H   0  0  0  0  0  0  0  0  0  0  0  0
   10.8918   -4.3380    0.0000 H   0  0  0  0  0  0  0  0  0  0  0  0
    8.8034   -6.2119    0.0000 H   0  0  0  0  0  0  0  0  0  0  0  0
   10.3886   -5.8778    0.0000 H   0  0  0  0  0  0  0  0  0  0  0  0
   12.3371   -2.4800    0.0000 H   0  0  0  0  0  0  0  0  0  0  0  0
   13.0948   -2.7276    0.0000 H   0  0  0  0  0  0  0  0  0  0  0  0
   13.7093    3.3586    0.0000 H   0  0  0  0  0  0  0  0  0  0  0  0
   14.4265    2.5593    0.0000 H   0  0  0  0  0  0  0  0  0  0  0  0
   12.0145    3.0014    0.0000 H   0  0  0  0  0  0  0  0  0  0  0  0
   11.6809    1.9807    0.0000 H   0  0  0  0  0  0  0  0  0  0  0  0
   15.1165   -2.5626    0.0000 H   0  0  0  0  0  0  0  0  0  0  0  0
  1 22  2  0  0  0  0
  2 27  2  0  0  0  0
  3 29  2  0  0  0  0
  4 36  2  0  0  0  0
  5 45  2  0  0  0  0
  6 55  1  0  0  0  0
  6112  1  0  0  0  0
  7 55  2  0  0  0  0
 20  8  1  6  0  0  0
  8 22  1  0  0  0  0
  8 62  1  0  0  0  0
 18  9  1  1  0  0  0
  9 29  1  0  0  0  0
  9 64  1  0  0  0  0
 26 10  1  6  0  0  0
 10 27  1  0  0  0  0
 10 75  1  0  0  0  0
 34 11  1  1  0  0  0
 11 36  1  0  0  0  0
 11 82  1  0  0  0  0
 12 35  1  0  0  0  0
 12 37  1  0  0  0  0
 12 89  1  0  0  0  0
 23 13  1  6  0  0  0
 13 90  1  0  0  0  0
 13 91  1  0  0  0  0
 14 45  1  0  0  0  0
 14 54  1  0  0  0  0
 14102  1  0  0  0  0
 15 48  1  0  0  0  0
 15 56  2  0  0  0  0
 16 56  1  0  0  0  0
 16108  1  0  0  0  0
 16109  1  0  0  0  0
 17 56  1  0  0  0  0
 17110  1  0  0  0  0
 17111  1  0  0  0  0
 18 19  1  0  0  0  0
 18 22  1  0  0  0  0
 18 57  1  0  0  0  0
 19 30  1  0  0  0  0
 19 31  1  0  0  0  0
 19 58  1  0  0  0  0
 20 21  1  0  0  0  0
 20 27  1  0  0  0  0
 20 59  1  0  0  0  0
 21 25  1  0  0  0  0
 21 60  1  0  0  0  0
 21 61  1  0  0  0  0
 23 24  1  0  0  0  0
 23 29  1  0  0  0  0
 23 63  1  0  0  0  0
 24 28  1  0  0  0  0
 24 65  1  0  0  0  0
 24 66  1  0  0  0  0
 25 32  1  0  0  0  0
 25 35  2  0  0  0  0
 26 33  1  0  0  0  0
 26 36  1  0  0  0  0
 26 67  1  0  0  0  0
 28 39  1  0  0  0  0
 28 40  1  0  0  0  0
 28 68  1  0  0  0  0
 30 69  1  0  0  0  0
 30 70  1  0  0  0  0
 30 71  1  0  0  0  0
 31 72  1  0  0  0  0
 31 73  1  0  0  0  0
 31 74  1  0  0  0  0
 32 37  1  0  0  0  0
 32 42  2  0  0  0  0
 33 41  1  0  0  0  0
 33 76  1  0  0  0  0
 33 77  1  0  0  0  0
 34 38  1  0  0  0  0
 34 45  1  0  0  0  0
 34 78  1  0  0  0  0
 35 79  1  0  0  0  0
 37 44  2  0  0  0  0
 38 43  1  0  0  0  0
 38 80  1  0  0  0  0
 38 81  1  0  0  0  0
 39 83  1  0  0  0  0
 39 84  1  0  0  0  0
 39 85  1  0  0  0  0
 40 86  1  0  0  0  0
 40 87  1  0  0  0  0
 40 88  1  0  0  0  0
 41 49  2  0  0  0  0
 41 50  1  0  0  0  0
 42 46  1  0  0  0  0
 42 92  1  0  0  0  0
 43 48  1  0  0  0  0
 43 93  1  0  0  0  0
 43 94  1  0  0  0  0
 44 47  1  0  0  0  0
 44 95  1  0  0  0  0
 46 47  2  0  0  0  0
 46 96  1  0  0  0  0
 47 97  1  0  0  0  0
 48 98  1  0  0  0  0
 48 99  1  0  0  0  0
 49 51  1  0  0  0  0
 49100  1  0  0  0  0
 50 52  2  0  0  0  0
 50101  1  0  0  0  0
 51 53  2  0  0  0  0
 51103  1  0  0  0  0
 52 53  1  0  0  0  0
 52104  1  0  0  0  0
 53105  1  0  0  0  0
 54 55  1  0  0  0  0
 54106  1  0  0  0  0
 54107  1  0  0  0  0
M  END
> <PUBCHEM_COMPOUND_CID>
134826974

> <PUBCHEM_COMPOUND_CANONICALIZED>
1

> <PUBCHEM_CACTVS_COMPLEXITY>
1350

> <PUBCHEM_CACTVS_HBOND_ACCEPTOR>
9

> <PUBCHEM_CACTVS_HBOND_DONOR>
10

> <PUBCHEM_CACTVS_ROTATABLE_BOND>
22

> <PUBCHEM_CACTVS_SUBSKEYS>
AAADcfB/+AAAAAAAAAAAAAAAAAAAAWAAAAAwYAAAAAAAAFgB9AAAHgAQCAAADSjBngQ/yPLJkgCoAzX3fACCgCExAiAI2aG4ZJgKYPLAkbGUIAhglgDYyAcYicCOgAAAAAACAAAAAAAAAAQAAAAAAAAAAA==

> <PUBCHEM_IUPAC_OPENEYE_NAME>
2-[[(2S)-2-[[(2S)-2-[[(2S)-2-[[(2S)-2-[[(2S)-2-amino-4-methyl-pentanoyl]amino]-3-methyl-butanoyl]amino]-3-(1H-indol-3-yl)propanoyl]amino]-3-phenyl-propanoyl]amino]-5-guanidino-pentanoyl]amino]acetic acid

> <PUBCHEM_IUPAC_CAS_NAME>
2-[[(2S)-2-[[(2S)-2-[[(2S)-2-[[(2S)-2-[[(2S)-2-amino-4-methyl-1-oxopentyl]amino]-3-methyl-1-oxobutyl]amino]-3-(1H-indol-3-yl)-1-oxopropyl]amino]-1-oxo-3-phenylpropyl]amino]-5-(diaminomethylideneamino)-1-oxopentyl]amino]acetic acid

> <PUBCHEM_IUPAC_NAME_MARKUP>
2-[[(2<I>S</I>)-2-[[(2<I>S</I>)-2-[[(2<I>S</I>)-2-[[(2<I>S</I>)-2-[[(2<I>S</I>)-2-amino-4-methylpentanoyl]amino]-3-methylbutanoyl]amino]-3-(1<I>H</I>-indol-3-yl)propanoyl]amino]-3-phenylpropanoyl]amino]-5-(diaminomethylideneamino)pentanoyl]amino]acetic acid

> <PUBCHEM_IUPAC_NAME>
2-[[(2S)-2-[[(2S)-2-[[(2S)-2-[[(2S)-2-[[(2S)-2-amino-4-methylpentanoyl]amino]-3-methylbutanoyl]amino]-3-(1H-indol-3-yl)propanoyl]amino]-3-phenylpropanoyl]amino]-5-(diaminomethylideneamino)pentanoyl]amino]acetic acid

> <PUBCHEM_IUPAC_SYSTEMATIC_NAME>
2-[[(2S)-2-[[(2S)-2-[[(2S)-2-[[(2S)-2-[[(2S)-2-azanyl-4-methyl-pentanoyl]amino]-3-methyl-butanoyl]amino]-3-(1H-indol-3-yl)propanoyl]amino]-3-phenyl-propanoyl]amino]-5-[bis(azanyl)methylideneamino]pentanoyl]amino]ethanoic acid

> <PUBCHEM_IUPAC_TRADITIONAL_NAME>
2-[[(2S)-2-[[(2S)-2-[[(2S)-2-[[(2S)-2-[[(2S)-2-amino-4-methyl-pentanoyl]amino]-3-methyl-butanoyl]amino]-3-(1H-indol-3-yl)propanoyl]amino]-3-phenyl-propanoyl]amino]-5-guanidino-pentanoyl]amino]acetic acid

> <PUBCHEM_IUPAC_INCHI>
InChI=1S/C39H56N10O7/c1-22(2)17-27(40)34(52)49-33(23(3)4)38(56)48-31(19-25-20-44-28-14-9-8-13-26(25)28)37(55)47-30(18-24-11-6-5-7-12-24)36(54)46-29(15-10-16-43-39(41)42)35(53)45-21-32(50)51/h5-9,11-14,20,22-23,27,29-31,33,44H,10,15-19,21,40H2,1-4H3,(H,45,53)(H,46,54)(H,47,55)(H,48,56)(H,49,52)(H,50,51)(H4,41,42,43)/t27-,29-,30-,31-,33-/m0/s1

> <PUBCHEM_IUPAC_INCHIKEY>
YKVBUUWHXRBILO-PHDILBGCSA-N

> <PUBCHEM_XLOGP3>
-1.6

> <PUBCHEM_EXACT_MASS>
776.43334416

> <PUBCHEM_MOLECULAR_FORMULA>
C39H56N10O7

> <PUBCHEM_MOLECULAR_WEIGHT>
776.9

> <PUBCHEM_OPENEYE_CAN_SMILES>
CC(C)CC(C(=O)NC(C(C)C)C(=O)NC(CC1=CNC2=CC=CC=C21)C(=O)NC(CC3=CC=CC=C3)C(=O)NC(CCCN=C(N)N)C(=O)NCC(=O)O)N

> <PUBCHEM_OPENEYE_ISO_SMILES>
CC(C)C[C@@H](C(=O)N[C@@H](C(C)C)C(=O)N[C@@H](CC1=CNC2=CC=CC=C21)C(=O)N[C@@H](CC3=CC=CC=C3)C(=O)N[C@@H](CCCN=C(N)N)C(=O)NCC(=O)O)N

> <PUBCHEM_CACTVS_TPSA>
289

> <PUBCHEM_MONOISOTOPIC_WEIGHT>
776.43334416

> <PUBCHEM_TOTAL_CHARGE>
0

> <PUBCHEM_HEAVY_ATOM_COUNT>
56

> <PUBCHEM_ATOM_DEF_STEREO_COUNT>
5

> <PUBCHEM_ATOM_UDEF_STEREO_COUNT>
0

> <PUBCHEM_BOND_DEF_STEREO_COUNT>
0

> <PUBCHEM_BOND_UDEF_STEREO_COUNT>
0

> <PUBCHEM_ISOTOPIC_ATOM_COUNT>
0

> <PUBCHEM_COMPONENT_COUNT>
1

> <PUBCHEM_CACTVS_TAUTO_COUNT>
-1

> <PUBCHEM_COORDINATE_TYPE>
1
5
255

> <PUBCHEM_BONDANNOTATIONS>
26  10  6
34  11  5
12  35  8
12  37  8
23  13  6
25  32  8
25  35  8
32  37  8
32  42  8
37  44  8
41  49  8
41  50  8
42  46  8
44  47  8
46  47  8
49  51  8
50  52  8
51  53  8
52  53  8
20  8  6
18  9  5

$$$$
