 
  -OEChem-10192104222D

 27 28  0     1  0  0  0  0  0999 V2000
    4.2320   -0.6160    0.0000 O   0  0  0  0  0  0  0  0  0  0  0  0
    6.9641   -0.6160    0.0000 O   0  0  0  0  0  0  0  0  0  0  0  0
   10.0622    0.7500    0.0000 O   0  0  0  0  0  0  0  0  0  0  0  0
    9.1962   -0.7500    0.0000 O   0  0  0  0  0  0  0  0  0  0  0  0
    4.7320    0.2500    0.0000 C   0  0  3  0  0  0  0  0  0  0  0  0
    6.4641    0.2500    0.0000 C   0  0  3  0  0  0  0  0  0  0  0  0
    5.5981    0.7500    0.0000 C   0  0  0  0  0  0  0  0  0  0  0  0
    3.7320    0.2500    0.0000 C   0  0  3  0  0  0  0  0  0  0  0  0
    7.4641    0.2500    0.0000 C   0  0  3  0  0  0  0  0  0  0  0  0
    2.8660    0.7500    0.0000 C   0  0  0  0  0  0  0  0  0  0  0  0
    8.3301    0.7500    0.0000 C   0  0  0  0  0  0  0  0  0  0  0  0
    2.0000    0.2500    0.0000 C   0  0  0  0  0  0  0  0  0  0  0  0
    9.1962    0.2500    0.0000 C   0  0  0  0  0  0  0  0  0  0  0  0
    5.1705   -0.1884    0.0000 H   0  0  0  0  0  0  0  0  0  0  0  0
    6.0257   -0.1884    0.0000 H   0  0  0  0  0  0  0  0  0  0  0  0
    5.9966    1.2250    0.0000 H   0  0  0  0  0  0  0  0  0  0  0  0
    5.1996    1.2250    0.0000 H   0  0  0  0  0  0  0  0  0  0  0  0
    3.2936   -0.1884    0.0000 H   0  0  0  0  0  0  0  0  0  0  0  0
    7.9025   -0.1884    0.0000 H   0  0  0  0  0  0  0  0  0  0  0  0
    3.2646    1.2250    0.0000 H   0  0  0  0  0  0  0  0  0  0  0  0
    2.4675    1.2250    0.0000 H   0  0  0  0  0  0  0  0  0  0  0  0
    8.7286    1.2250    0.0000 H   0  0  0  0  0  0  0  0  0  0  0  0
    7.9316    1.2250    0.0000 H   0  0  0  0  0  0  0  0  0  0  0  0
    1.6900    0.7869    0.0000 H   0  0  0  0  0  0  0  0  0  0  0  0
    1.4631   -0.0600    0.0000 H   0  0  0  0  0  0  0  0  0  0  0  0
    2.3100   -0.2869    0.0000 H   0  0  0  0  0  0  0  0  0  0  0  0
   10.5991    0.4400    0.0000 H   0  0  0  0  0  0  0  0  0  0  0  0
  1  5  1  0  0  0  0
  1  8  1  0  0  0  0
  2  6  1  0  0  0  0
  2  9  1  0  0  0  0
  3 13  1  0  0  0  0
  3 27  1  0  0  0  0
  4 13  2  0  0  0  0
  5  7  1  0  0  0  0
  5  8  1  0  0  0  0
  5 14  1  0  0  0  0
  6  7  1  0  0  0  0
  6  9  1  0  0  0  0
  6 15  1  0  0  0  0
  7 16  1  0  0  0  0
  7 17  1  0  0  0  0
  8 10  1  0  0  0  0
  8 18  1  0  0  0  0
  9 11  1  0  0  0  0
  9 19  1  0  0  0  0
 10 12  1  0  0  0  0
 10 20  1  0  0  0  0
 10 21  1  0  0  0  0
 11 13  1  0  0  0  0
 11 22  1  0  0  0  0
 11 23  1  0  0  0  0
 12 24  1  0  0  0  0
 12 25  1  0  0  0  0
 12 26  1  0  0  0  0
M  END
> <PUBCHEM_COMPOUND_CID>
57283971

> <PUBCHEM_COMPOUND_CANONICALIZED>
1

> <PUBCHEM_CACTVS_COMPLEXITY>
216

> <PUBCHEM_CACTVS_HBOND_ACCEPTOR>
4

> <PUBCHEM_CACTVS_HBOND_DONOR>
1

> <PUBCHEM_CACTVS_ROTATABLE_BOND>
5

> <PUBCHEM_CACTVS_SUBSKEYS>
AAADccBwOAAAAAAAAAAAAAAAEiQAAAAAAAAAAAAAAAAAAAAAAAAAGgAACAAACBSggAICCAAABgAIAACQCAAAAAAAAAAAAAEAAAAAABYAAAACQAAFIAAAAAHK6KSAAAAAAAAAAAAAAAAAAAAAAAAAAAAAAA==

> <PUBCHEM_IUPAC_OPENEYE_NAME>
2-[3-[(3-ethyloxiran-2-yl)methyl]oxiran-2-yl]acetic acid

> <PUBCHEM_IUPAC_CAS_NAME>
2-[3-[(3-ethyl-2-oxiranyl)methyl]-2-oxiranyl]acetic acid

> <PUBCHEM_IUPAC_NAME_MARKUP>
2-[3-[(3-ethyloxiran-2-yl)methyl]oxiran-2-yl]acetic acid

> <PUBCHEM_IUPAC_NAME>
2-[3-[(3-ethyloxiran-2-yl)methyl]oxiran-2-yl]acetic acid

> <PUBCHEM_IUPAC_SYSTEMATIC_NAME>
2-[3-[(3-ethyloxiran-2-yl)methyl]oxiran-2-yl]ethanoic acid

> <PUBCHEM_IUPAC_TRADITIONAL_NAME>
2-[3-[(3-ethyloxiran-2-yl)methyl]oxiran-2-yl]acetic acid

> <PUBCHEM_IUPAC_INCHI>
InChI=1S/C9H14O4/c1-2-5-6(12-5)3-7-8(13-7)4-9(10)11/h5-8H,2-4H2,1H3,(H,10,11)

> <PUBCHEM_IUPAC_INCHIKEY>
KVHDIKJOZPHCBM-UHFFFAOYSA-N

> <PUBCHEM_XLOGP3_AA>
0.5

> <PUBCHEM_EXACT_MASS>
186.08920892

> <PUBCHEM_MOLECULAR_FORMULA>
C9H14O4

> <PUBCHEM_MOLECULAR_WEIGHT>
186.20

> <PUBCHEM_OPENEYE_CAN_SMILES>
CCC1C(O1)CC2C(O2)CC(=O)O

> <PUBCHEM_OPENEYE_ISO_SMILES>
CCC1C(O1)CC2C(O2)CC(=O)O

> <PUBCHEM_CACTVS_TPSA>
62.4

> <PUBCHEM_MONOISOTOPIC_WEIGHT>
186.08920892

> <PUBCHEM_TOTAL_CHARGE>
0

> <PUBCHEM_HEAVY_ATOM_COUNT>
13

> <PUBCHEM_ATOM_DEF_STEREO_COUNT>
0

> <PUBCHEM_ATOM_UDEF_STEREO_COUNT>
4

> <PUBCHEM_BOND_DEF_STEREO_COUNT>
0

> <PUBCHEM_BOND_UDEF_STEREO_COUNT>
0

> <PUBCHEM_ISOTOPIC_ATOM_COUNT>
0

> <PUBCHEM_COMPONENT_COUNT>
1

> <PUBCHEM_CACTVS_TAUTO_COUNT>
-1

> <PUBCHEM_COORDINATE_TYPE>
1
5
255

> <PUBCHEM_BONDANNOTATIONS>
5  7  3
6  7  3
8  10  3
9  11  3

$$$$
