 
  -OEChem-10192104222D

 67 68  0     1  0  0  0  0  0999 V2000
    6.0010   -1.5000    0.0000 O   0  0  0  0  0  0  0  0  0  0  0  0
    7.7331    1.5000    0.0000 O   0  0  0  0  0  0  0  0  0  0  0  0
    4.2690   -1.5000    0.0000 O   0  0  0  0  0  0  0  0  0  0  0  0
    9.4651    1.5000    0.0000 O   0  0  0  0  0  0  0  0  0  0  0  0
    6.0010   -3.5000    0.0000 O   0  0  0  0  0  0  0  0  0  0  0  0
    7.7331    3.5000    0.0000 O   0  0  0  0  0  0  0  0  0  0  0  0
    4.2690   -4.5000    0.0000 O   0  0  0  0  0  0  0  0  0  0  0  0
    9.4651    4.5000    0.0000 O   0  0  0  0  0  0  0  0  0  0  0  0
    2.5369   -3.5000    0.0000 O   0  0  0  0  0  0  0  0  0  0  0  0
   11.1972    3.5000    0.0000 O   0  0  0  0  0  0  0  0  0  0  0  0
    2.5369   -0.5000    0.0000 O   0  0  0  0  0  0  0  0  0  0  0  0
   11.1972    0.5000    0.0000 O   0  0  0  0  0  0  0  0  0  0  0  0
    6.8671   -0.0000    0.0000 C   0  0  0  0  0  0  0  0  0  0  0  0
    6.0010   -0.5000    0.0000 C   0  0  0  0  0  0  0  0  0  0  0  0
    7.7331    0.5000    0.0000 C   0  0  0  0  0  0  0  0  0  0  0  0
    6.3671    0.8660    0.0000 C   0  0  0  0  0  0  0  0  0  0  0  0
    7.3671   -0.8660    0.0000 C   0  0  0  0  0  0  0  0  0  0  0  0
    5.1350   -2.0000    0.0000 C   0  0  1  0  0  0  0  0  0  0  0  0
    8.5991    2.0000    0.0000 C   0  0  3  0  0  0  0  0  0  0  0  0
    5.1350   -3.0000    0.0000 C   0  0  3  0  0  0  0  0  0  0  0  0
    8.5991    3.0000    0.0000 C   0  0  1  0  0  0  0  0  0  0  0  0
    4.2690   -3.5000    0.0000 C   0  0  1  0  0  0  0  0  0  0  0  0
    9.4651    3.5000    0.0000 C   0  0  1  0  0  0  0  0  0  0  0  0
    3.4030   -3.0000    0.0000 C   0  0  2  0  0  0  0  0  0  0  0  0
   10.3312    3.0000    0.0000 C   0  0  2  0  0  0  0  0  0  0  0  0
    3.4030   -2.0000    0.0000 C   0  0  3  0  0  0  0  0  0  0  0  0
   10.3312    2.0000    0.0000 C   0  0  3  0  0  0  0  0  0  0  0  0
    5.3671    0.8660    0.0000 C   0  0  0  0  0  0  0  0  0  0  0  0
    8.3671   -0.8660    0.0000 C   0  0  0  0  0  0  0  0  0  0  0  0
    2.5369   -1.5000    0.0000 C   0  0  0  0  0  0  0  0  0  0  0  0
   11.1972    1.5000    0.0000 C   0  0  0  0  0  0  0  0  0  0  0  0
    5.7890    0.0826    0.0000 H   0  0  0  0  0  0  0  0  0  0  0  0
    5.3905   -0.6077    0.0000 H   0  0  0  0  0  0  0  0  0  0  0  0
    7.9451   -0.0826    0.0000 H   0  0  0  0  0  0  0  0  0  0  0  0
    8.3437    0.6077    0.0000 H   0  0  0  0  0  0  0  0  0  0  0  0
    6.9497    1.0781    0.0000 H   0  0  0  0  0  0  0  0  0  0  0  0
    6.2594    1.4766    0.0000 H   0  0  0  0  0  0  0  0  0  0  0  0
    6.7844   -1.0781    0.0000 H   0  0  0  0  0  0  0  0  0  0  0  0
    7.4747   -1.4766    0.0000 H   0  0  0  0  0  0  0  0  0  0  0  0
    5.1350   -1.3800    0.0000 H   0  0  0  0  0  0  0  0  0  0  0  0
    8.5991    1.3800    0.0000 H   0  0  0  0  0  0  0  0  0  0  0  0
    5.1350   -3.6200    0.0000 H   0  0  0  0  0  0  0  0  0  0  0  0
    8.5991    3.6200    0.0000 H   0  0  0  0  0  0  0  0  0  0  0  0
    3.7320   -3.8100    0.0000 H   0  0  0  0  0  0  0  0  0  0  0  0
    8.9282    3.8100    0.0000 H   0  0  0  0  0  0  0  0  0  0  0  0
    3.4030   -3.6200    0.0000 H   0  0  0  0  0  0  0  0  0  0  0  0
   10.3312    3.6200    0.0000 H   0  0  0  0  0  0  0  0  0  0  0  0
    3.4030   -1.3800    0.0000 H   0  0  0  0  0  0  0  0  0  0  0  0
   10.3312    1.3800    0.0000 H   0  0  0  0  0  0  0  0  0  0  0  0
    5.3671    1.4860    0.0000 H   0  0  0  0  0  0  0  0  0  0  0  0
    4.7471    0.8660    0.0000 H   0  0  0  0  0  0  0  0  0  0  0  0
    5.3671    0.2460    0.0000 H   0  0  0  0  0  0  0  0  0  0  0  0
    8.3671   -1.4860    0.0000 H   0  0  0  0  0  0  0  0  0  0  0  0
    8.9871   -0.8660    0.0000 H   0  0  0  0  0  0  0  0  0  0  0  0
    8.3671   -0.2460    0.0000 H   0  0  0  0  0  0  0  0  0  0  0  0
    1.9264   -1.3923    0.0000 H   0  0  0  0  0  0  0  0  0  0  0  0
    2.3249   -2.0826    0.0000 H   0  0  0  0  0  0  0  0  0  0  0  0
   11.8078    1.3923    0.0000 H   0  0  0  0  0  0  0  0  0  0  0  0
   11.4092    2.0826    0.0000 H   0  0  0  0  0  0  0  0  0  0  0  0
    6.5380   -3.1900    0.0000 H   0  0  0  0  0  0  0  0  0  0  0  0
    7.7331    4.1200    0.0000 H   0  0  0  0  0  0  0  0  0  0  0  0
    3.7320   -4.8100    0.0000 H   0  0  0  0  0  0  0  0  0  0  0  0
   10.0021    4.8100    0.0000 H   0  0  0  0  0  0  0  0  0  0  0  0
    2.0000   -3.1900    0.0000 H   0  0  0  0  0  0  0  0  0  0  0  0
   11.7341    3.1900    0.0000 H   0  0  0  0  0  0  0  0  0  0  0  0
    2.0000   -0.1900    0.0000 H   0  0  0  0  0  0  0  0  0  0  0  0
   11.7341    0.1900    0.0000 H   0  0  0  0  0  0  0  0  0  0  0  0
  1 14  1  0  0  0  0
 18  1  1  6  0  0  0
  2 15  1  0  0  0  0
  2 19  1  0  0  0  0
  3 18  1  0  0  0  0
  3 26  1  0  0  0  0
  4 19  1  0  0  0  0
  4 27  1  0  0  0  0
  5 20  1  0  0  0  0
  5 60  1  0  0  0  0
 21  6  1  6  0  0  0
  6 61  1  0  0  0  0
 22  7  1  6  0  0  0
  7 62  1  0  0  0  0
 23  8  1  6  0  0  0
  8 63  1  0  0  0  0
 24  9  1  1  0  0  0
  9 64  1  0  0  0  0
 25 10  1  1  0  0  0
 10 65  1  0  0  0  0
 11 30  1  0  0  0  0
 11 66  1  0  0  0  0
 12 31  1  0  0  0  0
 12 67  1  0  0  0  0
 13 14  1  0  0  0  0
 13 15  1  0  0  0  0
 13 16  1  0  0  0  0
 13 17  1  0  0  0  0
 14 32  1  0  0  0  0
 14 33  1  0  0  0  0
 15 34  1  0  0  0  0
 15 35  1  0  0  0  0
 16 28  1  0  0  0  0
 16 36  1  0  0  0  0
 16 37  1  0  0  0  0
 17 29  1  0  0  0  0
 17 38  1  0  0  0  0
 17 39  1  0  0  0  0
 18 20  1  0  0  0  0
 18 40  1  0  0  0  0
 19 21  1  0  0  0  0
 19 41  1  0  0  0  0
 20 22  1  0  0  0  0
 20 42  1  0  0  0  0
 21 23  1  0  0  0  0
 21 43  1  0  0  0  0
 22 24  1  0  0  0  0
 22 44  1  0  0  0  0
 23 25  1  0  0  0  0
 23 45  1  0  0  0  0
 24 26  1  0  0  0  0
 24 46  1  0  0  0  0
 25 27  1  0  0  0  0
 25 47  1  0  0  0  0
 26 30  1  0  0  0  0
 26 48  1  0  0  0  0
 27 31  1  0  0  0  0
 27 49  1  0  0  0  0
 28 50  1  0  0  0  0
 28 51  1  0  0  0  0
 28 52  1  0  0  0  0
 29 53  1  0  0  0  0
 29 54  1  0  0  0  0
 29 55  1  0  0  0  0
 30 56  1  0  0  0  0
 30 57  1  0  0  0  0
 31 58  1  0  0  0  0
 31 59  1  0  0  0  0
M  END
> <PUBCHEM_COMPOUND_CID>
89796194

> <PUBCHEM_COMPOUND_CANONICALIZED>
1

> <PUBCHEM_CACTVS_COMPLEXITY>
490

> <PUBCHEM_CACTVS_HBOND_ACCEPTOR>
12

> <PUBCHEM_CACTVS_HBOND_DONOR>
8

> <PUBCHEM_CACTVS_ROTATABLE_BOND>
10

> <PUBCHEM_CACTVS_SUBSKEYS>
AAADcfB4PAAAAAAAAAAAAAAAAAAAAAAAAAAkSAAAAAAAAAAAAAAAGgAACAAADhSwgAMCCAAABgAAAAAAAAAAAAAAAAAAAAAAAAAREAIAAAAiQAAFAAAHAAHAYAwLAAAAAAAAAAAAAAAAAAAAAAAAAAAAAA==

> <PUBCHEM_IUPAC_OPENEYE_NAME>
(2S,4R,5R)-2-[2-ethyl-2-[[(3R,4R,5R)-3,4,5-trihydroxy-6-(hydroxymethyl)tetrahydropyran-2-yl]oxymethyl]butoxy]-6-(hydroxymethyl)tetrahydropyran-3,4,5-triol

> <PUBCHEM_IUPAC_CAS_NAME>
(2S,4R,5R)-2-[2-ethyl-2-[[(3R,4R,5R)-3,4,5-trihydroxy-6-(hydroxymethyl)-2-oxanyl]oxymethyl]butoxy]-6-(hydroxymethyl)oxane-3,4,5-triol

> <PUBCHEM_IUPAC_NAME_MARKUP>
(2<I>S</I>,4<I>R</I>,5<I>R</I>)-2-[2-ethyl-2-[[(3<I>R</I>,4<I>R</I>,5<I>R</I>)-3,4,5-trihydroxy-6-(hydroxymethyl)oxan-2-yl]oxymethyl]butoxy]-6-(hydroxymethyl)oxane-3,4,5-triol

> <PUBCHEM_IUPAC_NAME>
(2S,4R,5R)-2-[2-ethyl-2-[[(3R,4R,5R)-3,4,5-trihydroxy-6-(hydroxymethyl)oxan-2-yl]oxymethyl]butoxy]-6-(hydroxymethyl)oxane-3,4,5-triol

> <PUBCHEM_IUPAC_SYSTEMATIC_NAME>
(2S,4R,5R)-2-[2-ethyl-2-[[(3R,4R,5R)-6-(hydroxymethyl)-3,4,5-tris(oxidanyl)oxan-2-yl]oxymethyl]butoxy]-6-(hydroxymethyl)oxane-3,4,5-triol

> <PUBCHEM_IUPAC_TRADITIONAL_NAME>
(2S,4R,5R)-2-[2-ethyl-2-[[(3R,4R,5R)-3,4,5-trihydroxy-6-methylol-tetrahydropyran-2-yl]oxymethyl]butoxy]-6-methylol-tetrahydropyran-3,4,5-triol

> <PUBCHEM_IUPAC_INCHI>
InChI=1S/C19H36O12/c1-3-19(4-2,7-28-17-15(26)13(24)11(22)9(5-20)30-17)8-29-18-16(27)14(25)12(23)10(6-21)31-18/h9-18,20-27H,3-8H2,1-2H3/t9?,10?,11-,12-,13+,14+,15+,16?,17?,18-/m0/s1

> <PUBCHEM_IUPAC_INCHIKEY>
UDXILTXGUPSBEB-JIBDBMBKSA-N

> <PUBCHEM_XLOGP3_AA>
-2.4

> <PUBCHEM_EXACT_MASS>
456.22067658

> <PUBCHEM_MOLECULAR_FORMULA>
C19H36O12

> <PUBCHEM_MOLECULAR_WEIGHT>
456.5

> <PUBCHEM_OPENEYE_CAN_SMILES>
CCC(CC)(COC1C(C(C(C(O1)CO)O)O)O)COC2C(C(C(C(O2)CO)O)O)O

> <PUBCHEM_OPENEYE_ISO_SMILES>
CCC(CC)(CO[C@@H]1C([C@@H]([C@H](C(O1)CO)O)O)O)COC2[C@@H]([C@@H]([C@H](C(O2)CO)O)O)O

> <PUBCHEM_CACTVS_TPSA>
199

> <PUBCHEM_MONOISOTOPIC_WEIGHT>
456.22067658

> <PUBCHEM_TOTAL_CHARGE>
0

> <PUBCHEM_HEAVY_ATOM_COUNT>
31

> <PUBCHEM_ATOM_DEF_STEREO_COUNT>
6

> <PUBCHEM_ATOM_UDEF_STEREO_COUNT>
4

> <PUBCHEM_BOND_DEF_STEREO_COUNT>
0

> <PUBCHEM_BOND_UDEF_STEREO_COUNT>
0

> <PUBCHEM_ISOTOPIC_ATOM_COUNT>
0

> <PUBCHEM_COMPONENT_COUNT>
1

> <PUBCHEM_CACTVS_TAUTO_COUNT>
-1

> <PUBCHEM_COORDINATE_TYPE>
1
5
255

> <PUBCHEM_BONDANNOTATIONS>
18  1  6
25  10  5
19  2  3
26  30  3
27  31  3
20  5  3
21  6  6
22  7  6
23  8  6
24  9  5

$$$$
