 
  -OEChem-10192104322D

 55 56  0     1  0  0  0  0  0999 V2000
    2.5369   -1.4050    0.0000 O   0  0  0  0  0  0  0  0  0  0  0  0
    3.4030    0.0950    0.0000 O   0  0  0  0  0  0  0  0  0  0  0  0
    4.2690    3.5950    0.0000 O   0  0  0  0  0  0  0  0  0  0  0  0
    8.5991   -3.9050    0.0000 O   0  0  0  0  0  0  0  0  0  0  0  0
    6.0010    3.5950    0.0000 O   0  0  0  0  0  0  0  0  0  0  0  0
    9.4651   -2.4050    0.0000 O   0  0  0  0  0  0  0  0  0  0  0  0
    5.1350   -0.9050    0.0000 C   0  0  0  0  0  0  0  0  0  0  0  0
    5.1350    0.0950    0.0000 C   0  0  0  0  0  0  0  0  0  0  0  0
    6.0010   -1.4050    0.0000 C   0  0  0  0  0  0  0  0  0  0  0  0
    6.0010    0.5950    0.0000 C   0  0  0  0  0  0  0  0  0  0  0  0
    6.8671   -0.9050    0.0000 C   0  0  0  0  0  0  0  0  0  0  0  0
    6.0010    1.5950    0.0000 C   0  0  3  0  0  0  0  0  0  0  0  0
    7.7331   -1.4050    0.0000 C   0  0  3  0  0  0  0  0  0  0  0  0
    4.2690   -1.4050    0.0000 C   0  0  0  0  0  0  0  0  0  0  0  0
    6.8671    2.0950    0.0000 C   0  0  0  0  0  0  0  0  0  0  0  0
    8.5991   -0.9050    0.0000 C   0  0  0  0  0  0  0  0  0  0  0  0
    5.1350    2.0950    0.0000 C   0  0  0  0  0  0  0  0  0  0  0  0
    7.7331   -2.4050    0.0000 C   0  0  0  0  0  0  0  0  0  0  0  0
    7.7331    1.5950    0.0000 C   0  0  0  0  0  0  0  0  0  0  0  0
    8.5991    0.0950    0.0000 C   0  0  0  0  0  0  0  0  0  0  0  0
    7.7331    0.5950    0.0000 C   0  0  0  0  0  0  0  0  0  0  0  0
    3.4030   -0.9050    0.0000 C   0  0  0  0  0  0  0  0  0  0  0  0
    8.5991    2.0950    0.0000 C   0  0  0  0  0  0  0  0  0  0  0  0
    9.4651    0.5950    0.0000 C   0  0  0  0  0  0  0  0  0  0  0  0
    5.1350    3.0950    0.0000 C   0  0  0  0  0  0  0  0  0  0  0  0
    8.5991   -2.9050    0.0000 C   0  0  0  0  0  0  0  0  0  0  0  0
    9.4651    1.5950    0.0000 C   0  0  0  0  0  0  0  0  0  0  0  0
    5.1350   -1.5250    0.0000 H   0  0  0  0  0  0  0  0  0  0  0  0
    4.9230    0.6776    0.0000 H   0  0  0  0  0  0  0  0  0  0  0  0
    4.5244   -0.0127    0.0000 H   0  0  0  0  0  0  0  0  0  0  0  0
    5.6025   -1.8800    0.0000 H   0  0  0  0  0  0  0  0  0  0  0  0
    6.3996   -1.8800    0.0000 H   0  0  0  0  0  0  0  0  0  0  0  0
    6.2131    0.0124    0.0000 H   0  0  0  0  0  0  0  0  0  0  0  0
    6.6116    0.7027    0.0000 H   0  0  0  0  0  0  0  0  0  0  0  0
    7.2656   -0.4301    0.0000 H   0  0  0  0  0  0  0  0  0  0  0  0
    6.4685   -0.4301    0.0000 H   0  0  0  0  0  0  0  0  0  0  0  0
    5.4641    1.2850    0.0000 H   0  0  0  0  0  0  0  0  0  0  0  0
    8.2700   -1.7150    0.0000 H   0  0  0  0  0  0  0  0  0  0  0  0
    3.8705   -1.8800    0.0000 H   0  0  0  0  0  0  0  0  0  0  0  0
    4.6675   -1.8800    0.0000 H   0  0  0  0  0  0  0  0  0  0  0  0
    7.2656    2.5700    0.0000 H   0  0  0  0  0  0  0  0  0  0  0  0
    6.4685    2.5700    0.0000 H   0  0  0  0  0  0  0  0  0  0  0  0
    8.8112   -1.4876    0.0000 H   0  0  0  0  0  0  0  0  0  0  0  0
    9.2097   -0.7973    0.0000 H   0  0  0  0  0  0  0  0  0  0  0  0
    4.5244    2.2027    0.0000 H   0  0  0  0  0  0  0  0  0  0  0  0
    4.9230    1.5124    0.0000 H   0  0  0  0  0  0  0  0  0  0  0  0
    7.1225   -2.2973    0.0000 H   0  0  0  0  0  0  0  0  0  0  0  0
    7.5210   -2.9876    0.0000 H   0  0  0  0  0  0  0  0  0  0  0  0
    7.1962    0.2850    0.0000 H   0  0  0  0  0  0  0  0  0  0  0  0
    8.5991    2.7150    0.0000 H   0  0  0  0  0  0  0  0  0  0  0  0
   10.0021    0.2850    0.0000 H   0  0  0  0  0  0  0  0  0  0  0  0
   10.0021    1.9050    0.0000 H   0  0  0  0  0  0  0  0  0  0  0  0
    2.0000   -1.0950    0.0000 H   0  0  0  0  0  0  0  0  0  0  0  0
    4.2690    4.2150    0.0000 H   0  0  0  0  0  0  0  0  0  0  0  0
    9.1360   -4.2150    0.0000 H   0  0  0  0  0  0  0  0  0  0  0  0
  1 22  1  0  0  0  0
  1 53  1  0  0  0  0
  2 22  2  0  0  0  0
  3 25  1  0  0  0  0
  3 54  1  0  0  0  0
  4 26  1  0  0  0  0
  4 55  1  0  0  0  0
  5 25  2  0  0  0  0
  6 26  2  0  0  0  0
  7  8  1  0  0  0  0
  7  9  1  0  0  0  0
  7 14  1  0  0  0  0
  7 28  1  0  0  0  0
  8 10  1  0  0  0  0
  8 29  1  0  0  0  0
  8 30  1  0  0  0  0
  9 11  1  0  0  0  0
  9 31  1  0  0  0  0
  9 32  1  0  0  0  0
 10 12  1  0  0  0  0
 10 33  1  0  0  0  0
 10 34  1  0  0  0  0
 11 13  1  0  0  0  0
 11 35  1  0  0  0  0
 11 36  1  0  0  0  0
 12 15  1  0  0  0  0
 12 17  1  0  0  0  0
 12 37  1  0  0  0  0
 13 16  1  0  0  0  0
 13 18  1  0  0  0  0
 13 38  1  0  0  0  0
 14 22  1  0  0  0  0
 14 39  1  0  0  0  0
 14 40  1  0  0  0  0
 15 19  1  0  0  0  0
 15 41  1  0  0  0  0
 15 42  1  0  0  0  0
 16 20  1  0  0  0  0
 16 43  1  0  0  0  0
 16 44  1  0  0  0  0
 17 25  1  0  0  0  0
 17 45  1  0  0  0  0
 17 46  1  0  0  0  0
 18 26  1  0  0  0  0
 18 47  1  0  0  0  0
 18 48  1  0  0  0  0
 19 21  2  0  0  0  0
 19 23  1  0  0  0  0
 20 21  1  0  0  0  0
 20 24  2  0  0  0  0
 21 49  1  0  0  0  0
 23 27  2  0  0  0  0
 23 50  1  0  0  0  0
 24 27  1  0  0  0  0
 24 51  1  0  0  0  0
 27 52  1  0  0  0  0
M  END
> <PUBCHEM_COMPOUND_CID>
129852666

> <PUBCHEM_COMPOUND_CANONICALIZED>
1

> <PUBCHEM_CACTVS_COMPLEXITY>
481

> <PUBCHEM_CACTVS_HBOND_ACCEPTOR>
6

> <PUBCHEM_CACTVS_HBOND_DONOR>
3

> <PUBCHEM_CACTVS_ROTATABLE_BOND>
6

> <PUBCHEM_CACTVS_SUBSKEYS>
AAADceB4OAAAAAAAAAAAAAAAAAAAAAAAAAAwAAAAAAAAAAABAAAAGgAACAAADQCAmAAwCIAAAgCIAiDSCAACAAAgAAAIiAEAAIgIIDKAERCAYAAkgAAIiAeIyPCOAAACAAAAAAAAAAQAAAAAAAAAAAAAAA==

> <PUBCHEM_IUPAC_OPENEYE_NAME>
2-[3,9-bis(carboxymethyl)-6-bicyclo[9.3.1]pentadeca-1(15),11,13-trienyl]acetic acid

> <PUBCHEM_IUPAC_CAS_NAME>
2-[3,9-bis(carboxymethyl)-6-bicyclo[9.3.1]pentadeca-1(15),11,13-trienyl]acetic acid

> <PUBCHEM_IUPAC_NAME_MARKUP>
2-[3,9-bis(carboxymethyl)-6-bicyclo[9.3.1]pentadeca-1(15),11,13-trienyl]acetic acid

> <PUBCHEM_IUPAC_NAME>
2-[3,9-bis(carboxymethyl)-6-bicyclo[9.3.1]pentadeca-1(15),11,13-trienyl]acetic acid

> <PUBCHEM_IUPAC_SYSTEMATIC_NAME>
2-[3,9-bis(2-hydroxy-2-oxoethyl)-6-bicyclo[9.3.1]pentadeca-1(15),11,13-trienyl]ethanoic acid

> <PUBCHEM_IUPAC_TRADITIONAL_NAME>
2-[3,9-bis(carboxymethyl)-6-bicyclo[9.3.1]pentadeca-1(15),11,13-trienyl]acetic acid

> <PUBCHEM_IUPAC_INCHI>
InChI=1S/C21H28O6/c22-19(23)11-14-4-6-17(12-20(24)25)9-15-2-1-3-16(8-15)10-18(7-5-14)13-21(26)27/h1-3,8,14,17-18H,4-7,9-13H2,(H,22,23)(H,24,25)(H,26,27)

> <PUBCHEM_IUPAC_INCHIKEY>
DJZYEEQGMNMAGP-UHFFFAOYSA-N

> <PUBCHEM_XLOGP3_AA>
3.6

> <PUBCHEM_EXACT_MASS>
376.18858861

> <PUBCHEM_MOLECULAR_FORMULA>
C21H28O6

> <PUBCHEM_MOLECULAR_WEIGHT>
376.4

> <PUBCHEM_OPENEYE_CAN_SMILES>
C1CC(CC2=CC(=CC=C2)CC(CCC1CC(=O)O)CC(=O)O)CC(=O)O

> <PUBCHEM_OPENEYE_ISO_SMILES>
C1CC(CC2=CC(=CC=C2)CC(CCC1CC(=O)O)CC(=O)O)CC(=O)O

> <PUBCHEM_CACTVS_TPSA>
112

> <PUBCHEM_MONOISOTOPIC_WEIGHT>
376.18858861

> <PUBCHEM_TOTAL_CHARGE>
0

> <PUBCHEM_HEAVY_ATOM_COUNT>
27

> <PUBCHEM_ATOM_DEF_STEREO_COUNT>
0

> <PUBCHEM_ATOM_UDEF_STEREO_COUNT>
2

> <PUBCHEM_BOND_DEF_STEREO_COUNT>
0

> <PUBCHEM_BOND_UDEF_STEREO_COUNT>
0

> <PUBCHEM_ISOTOPIC_ATOM_COUNT>
0

> <PUBCHEM_COMPONENT_COUNT>
1

> <PUBCHEM_CACTVS_TAUTO_COUNT>
-1

> <PUBCHEM_COORDINATE_TYPE>
1
5
255

> <PUBCHEM_BONDANNOTATIONS>
12  17  3
13  18  3
19  21  8
19  23  8
20  21  8
20  24  8
23  27  8
24  27  8

$$$$
