 
  -OEChem-10192104142D

 23 23  0     1  0  0  0  0  0999 V2000
    2.4608    0.5234    0.0000 O   0  0  0  0  0  0  0  0  0  0  0  0
    4.2208    1.8021    0.0000 O   0  0  0  0  0  0  0  0  0  0  0  0
    3.1330   -1.5457    0.0000 O   0  0  0  0  0  0  0  0  0  0  0  0
    3.4118    0.2143    0.0000 C   0  0  3  0  0  0  0  0  0  0  0  0
    4.2208    0.8021    0.0000 C   0  0  3  0  0  0  0  0  0  0  0  0
    3.7208   -0.7367    0.0000 C   0  0  3  0  0  0  0  0  0  0  0  0
    5.0298    0.2143    0.0000 C   0  0  0  0  0  0  0  0  0  0  0  0
    4.7208   -0.7367    0.0000 C   0  0  0  0  0  0  0  0  0  0  0  0
    5.9809    0.5234    0.0000 C   0  0  0  0  0  0  0  0  0  0  0  0
    6.7240   -0.1458    0.0000 C   0  0  0  0  0  0  0  0  0  0  0  0
    7.6751    0.1632    0.0000 C   0  0  0  0  0  0  0  0  0  0  0  0
    3.3148    0.8267    0.0000 H   0  0  0  0  0  0  0  0  0  0  0  0
    3.6684    1.0836    0.0000 H   0  0  0  0  0  0  0  0  0  0  0  0
    4.0023   -1.2891    0.0000 H   0  0  0  0  0  0  0  0  0  0  0  0
    5.0852   -1.2383    0.0000 H   0  0  0  0  0  0  0  0  0  0  0  0
    6.1098    1.1298    0.0000 H   0  0  0  0  0  0  0  0  0  0  0  0
    2.0000    0.1085    0.0000 H   0  0  0  0  0  0  0  0  0  0  0  0
    3.6839    2.1121    0.0000 H   0  0  0  0  0  0  0  0  0  0  0  0
    3.3852   -2.1121    0.0000 H   0  0  0  0  0  0  0  0  0  0  0  0
    6.5951   -0.7522    0.0000 H   0  0  0  0  0  0  0  0  0  0  0  0
    7.8667   -0.4264    0.0000 H   0  0  0  0  0  0  0  0  0  0  0  0
    8.2648    0.3548    0.0000 H   0  0  0  0  0  0  0  0  0  0  0  0
    7.4835    0.7529    0.0000 H   0  0  0  0  0  0  0  0  0  0  0  0
  1  4  1  0  0  0  0
  1 17  1  0  0  0  0
  2  5  1  0  0  0  0
  2 18  1  0  0  0  0
  3  6  1  0  0  0  0
  3 19  1  0  0  0  0
  4  5  1  0  0  0  0
  4  6  1  0  0  0  0
  4 12  1  0  0  0  0
  5  7  1  0  0  0  0
  5 13  1  0  0  0  0
  6  8  1  0  0  0  0
  6 14  1  0  0  0  0
  7  8  2  0  0  0  0
  7  9  1  0  0  0  0
  8 15  1  0  0  0  0
  9 10  2  3  0  0  0
  9 16  1  0  0  0  0
 10 11  1  0  0  0  0
 10 20  1  0  0  0  0
 11 21  1  0  0  0  0
 11 22  1  0  0  0  0
 11 23  1  0  0  0  0
M  END
> <PUBCHEM_COMPOUND_CID>
71372091

> <PUBCHEM_COMPOUND_CANONICALIZED>
1

> <PUBCHEM_CACTVS_COMPLEXITY>
196

> <PUBCHEM_CACTVS_HBOND_ACCEPTOR>
3

> <PUBCHEM_CACTVS_HBOND_DONOR>
3

> <PUBCHEM_CACTVS_ROTATABLE_BOND>
1

> <PUBCHEM_CACTVS_SUBSKEYS>
AAADccBwMAAAAAAAAAAAAAAAAAAAAQAAAAAAAAAAAAAAAAAAAAAAGgAACAAADBSggAICAAAAAgCAAiBCAAAAAAAgAAAICAAAAAgJFAIAAQAAUAAFwAAJkAOAAAAAAAAAAAAAAAAAAAAAAAAAAAAAAAAAAA==

> <PUBCHEM_IUPAC_OPENEYE_NAME>
4-prop-1-enylcyclopent-4-ene-1,2,3-triol

> <PUBCHEM_IUPAC_CAS_NAME>
4-prop-1-enylcyclopent-4-ene-1,2,3-triol

> <PUBCHEM_IUPAC_NAME_MARKUP>
4-prop-1-enylcyclopent-4-ene-1,2,3-triol

> <PUBCHEM_IUPAC_NAME>
4-prop-1-enylcyclopent-4-ene-1,2,3-triol

> <PUBCHEM_IUPAC_SYSTEMATIC_NAME>
4-prop-1-enylcyclopent-4-ene-1,2,3-triol

> <PUBCHEM_IUPAC_TRADITIONAL_NAME>
4-prop-1-enylcyclopent-4-ene-1,2,3-triol

> <PUBCHEM_IUPAC_INCHI>
InChI=1S/C8H12O3/c1-2-3-5-4-6(9)8(11)7(5)10/h2-4,6-11H,1H3

> <PUBCHEM_IUPAC_INCHIKEY>
RHTRLDMJEALVCC-UHFFFAOYSA-N

> <PUBCHEM_XLOGP3_AA>
-0.9

> <PUBCHEM_EXACT_MASS>
156.078644241

> <PUBCHEM_MOLECULAR_FORMULA>
C8H12O3

> <PUBCHEM_MOLECULAR_WEIGHT>
156.18

> <PUBCHEM_OPENEYE_CAN_SMILES>
CC=CC1=CC(C(C1O)O)O

> <PUBCHEM_OPENEYE_ISO_SMILES>
CC=CC1=CC(C(C1O)O)O

> <PUBCHEM_CACTVS_TPSA>
60.7

> <PUBCHEM_MONOISOTOPIC_WEIGHT>
156.078644241

> <PUBCHEM_TOTAL_CHARGE>
0

> <PUBCHEM_HEAVY_ATOM_COUNT>
11

> <PUBCHEM_ATOM_DEF_STEREO_COUNT>
0

> <PUBCHEM_ATOM_UDEF_STEREO_COUNT>
3

> <PUBCHEM_BOND_DEF_STEREO_COUNT>
0

> <PUBCHEM_BOND_UDEF_STEREO_COUNT>
1

> <PUBCHEM_ISOTOPIC_ATOM_COUNT>
0

> <PUBCHEM_COMPONENT_COUNT>
1

> <PUBCHEM_CACTVS_TAUTO_COUNT>
-1

> <PUBCHEM_COORDINATE_TYPE>
1
5
255

> <PUBCHEM_BONDANNOTATIONS>
4  1  3
5  2  3
6  3  3
9  10  1

$$$$
