 
  -OEChem-10192103362D

 16 16  0     1  0  0  0  0  0999 V2000
    4.2208   -1.1074    0.0000 O   0  0  0  0  0  0  0  0  0  0  0  0
    3.1330    1.2404    0.0000 O   0  0  0  0  0  0  0  0  0  0  0  0
    5.3086    1.2404    0.0000 O   0  0  0  0  0  0  0  0  0  0  0  0
    5.9809   -0.8287    0.0000 O   0  0  0  0  0  0  0  0  0  0  0  0
    2.2528   -1.8068    0.0000 O   0  0  0  0  0  0  0  0  0  0  0  0
    3.7208    0.4314    0.0000 C   0  0  3  0  0  0  0  0  0  0  0  0
    3.4118   -0.5197    0.0000 C   0  0  3  0  0  0  0  0  0  0  0  0
    4.7208    0.4314    0.0000 C   0  0  3  0  0  0  0  0  0  0  0  0
    5.0298   -0.5197    0.0000 C   0  0  0  0  0  0  0  0  0  0  0  0
    2.4608   -0.8287    0.0000 C   0  0  0  0  0  0  0  0  0  0  0  0
    3.1085    0.3344    0.0000 H   0  0  0  0  0  0  0  0  0  0  0  0
    3.3148   -1.1320    0.0000 H   0  0  0  0  0  0  0  0  0  0  0  0
    4.4394    0.9838    0.0000 H   0  0  0  0  0  0  0  0  0  0  0  0
    2.0000   -0.4138    0.0000 H   0  0  0  0  0  0  0  0  0  0  0  0
    3.3852    1.8068    0.0000 H   0  0  0  0  0  0  0  0  0  0  0  0
    5.9252    1.1756    0.0000 H   0  0  0  0  0  0  0  0  0  0  0  0
  1  7  1  0  0  0  0
  1  9  1  0  0  0  0
  2  6  1  0  0  0  0
  2 15  1  0  0  0  0
  3  8  1  0  0  0  0
  3 16  1  0  0  0  0
  4  9  2  0  0  0  0
  5 10  2  0  0  0  0
  6  7  1  0  0  0  0
  6  8  1  0  0  0  0
  6 11  1  0  0  0  0
  7 10  1  0  0  0  0
  7 12  1  0  0  0  0
  8  9  1  0  0  0  0
  8 13  1  0  0  0  0
 10 14  1  0  0  0  0
M  END
> <PUBCHEM_COMPOUND_CID>
130035434

> <PUBCHEM_COMPOUND_CANONICALIZED>
1

> <PUBCHEM_CACTVS_COMPLEXITY>
165

> <PUBCHEM_CACTVS_HBOND_ACCEPTOR>
5

> <PUBCHEM_CACTVS_HBOND_DONOR>
2

> <PUBCHEM_CACTVS_ROTATABLE_BOND>
1

> <PUBCHEM_CACTVS_SUBSKEYS>
AAADcYBgOAAAAAAAAAAAAAAAAAAAASAAAAAAAAAAAAAAAAAAAAAAGgAACAAACBSggAIACAAABgAIAAiQiAIAAAAAAAAAAAFAAAABEBYAAAQCQAAFIAADAACKBgAAAAAAAAAAAAAAAAAAAAAAAAAAAAAAAA==

> <PUBCHEM_IUPAC_OPENEYE_NAME>
3,4-dihydroxy-5-oxo-tetrahydrofuran-2-carbaldehyde

> <PUBCHEM_IUPAC_CAS_NAME>
3,4-dihydroxy-5-oxo-2-oxolanecarboxaldehyde

> <PUBCHEM_IUPAC_NAME_MARKUP>
3,4-dihydroxy-5-oxooxolane-2-carbaldehyde

> <PUBCHEM_IUPAC_NAME>
3,4-dihydroxy-5-oxooxolane-2-carbaldehyde

> <PUBCHEM_IUPAC_SYSTEMATIC_NAME>
3,4-bis(oxidanyl)-5-oxidanylidene-oxolane-2-carbaldehyde

> <PUBCHEM_IUPAC_TRADITIONAL_NAME>
3,4-dihydroxy-5-keto-tetrahydrofuran-2-carbaldehyde

> <PUBCHEM_IUPAC_INCHI>
InChI=1S/C5H6O5/c6-1-2-3(7)4(8)5(9)10-2/h1-4,7-8H

> <PUBCHEM_IUPAC_INCHIKEY>
BXMQBRZPWSHDOG-UHFFFAOYSA-N

> <PUBCHEM_XLOGP3_AA>
-1.2

> <PUBCHEM_EXACT_MASS>
146.02152329

> <PUBCHEM_MOLECULAR_FORMULA>
C5H6O5

> <PUBCHEM_MOLECULAR_WEIGHT>
146.10

> <PUBCHEM_OPENEYE_CAN_SMILES>
C(=O)C1C(C(C(=O)O1)O)O

> <PUBCHEM_OPENEYE_ISO_SMILES>
C(=O)C1C(C(C(=O)O1)O)O

> <PUBCHEM_CACTVS_TPSA>
83.8

> <PUBCHEM_MONOISOTOPIC_WEIGHT>
146.02152329

> <PUBCHEM_TOTAL_CHARGE>
0

> <PUBCHEM_HEAVY_ATOM_COUNT>
10

> <PUBCHEM_ATOM_DEF_STEREO_COUNT>
0

> <PUBCHEM_ATOM_UDEF_STEREO_COUNT>
3

> <PUBCHEM_BOND_DEF_STEREO_COUNT>
0

> <PUBCHEM_BOND_UDEF_STEREO_COUNT>
0

> <PUBCHEM_ISOTOPIC_ATOM_COUNT>
0

> <PUBCHEM_COMPONENT_COUNT>
1

> <PUBCHEM_CACTVS_TAUTO_COUNT>
-1

> <PUBCHEM_COORDINATE_TYPE>
1
5
255

> <PUBCHEM_BONDANNOTATIONS>
6  2  3
8  3  3
7  10  3

$$$$
