 
  -OEChem-10192103372D

 35 36  0     1  0  0  0  0  0999 V2000
    5.1350    1.0000    0.0000 O   0  0  0  0  0  0  0  0  0  0  0  0
    2.5369    2.5000    0.0000 O   0  0  0  0  0  0  0  0  0  0  0  0
    2.5369    0.5000    0.0000 O   0  0  0  0  0  0  0  0  0  0  0  0
    4.2690    3.5000    0.0000 O   0  0  0  0  0  0  0  0  0  0  0  0
    6.8671    2.0000    0.0000 O   0  0  0  0  0  0  0  0  0  0  0  0
    2.5369   -0.5000    0.0000 O   0  0  0  0  0  0  0  0  0  0  0  0
    4.2690   -3.5000    0.0000 O   0  0  0  0  0  0  0  0  0  0  0  0
    3.4030    2.0000    0.0000 C   0  0  2  0  0  0  0  0  0  0  0  0
    3.4030    1.0000    0.0000 C   0  0  2  0  0  0  0  0  0  0  0  0
    4.2690    2.5000    0.0000 C   0  0  1  0  0  0  0  0  0  0  0  0
    4.2690    0.5000    0.0000 C   0  0  2  0  0  0  0  0  0  0  0  0
    5.1350    2.0000    0.0000 C   0  0  1  0  0  0  0  0  0  0  0  0
    4.2690   -0.5000    0.0000 C   0  0  0  0  0  0  0  0  0  0  0  0
    6.0010    2.5000    0.0000 C   0  0  0  0  0  0  0  0  0  0  0  0
    3.4030   -1.0000    0.0000 C   0  0  0  0  0  0  0  0  0  0  0  0
    5.1350   -1.0000    0.0000 C   0  0  0  0  0  0  0  0  0  0  0  0
    3.4030   -2.0000    0.0000 C   0  0  0  0  0  0  0  0  0  0  0  0
    5.1350   -2.0000    0.0000 C   0  0  0  0  0  0  0  0  0  0  0  0
    4.2690   -2.5000    0.0000 C   0  0  0  0  0  0  0  0  0  0  0  0
    3.4030    2.6200    0.0000 H   0  0  0  0  0  0  0  0  0  0  0  0
    3.4030    0.3800    0.0000 H   0  0  0  0  0  0  0  0  0  0  0  0
    4.8059    2.8100    0.0000 H   0  0  0  0  0  0  0  0  0  0  0  0
    5.0051    0.0750    0.0000 H   0  0  0  0  0  0  0  0  0  0  0  0
    5.6720    1.6900    0.0000 H   0  0  0  0  0  0  0  0  0  0  0  0
    6.3996    2.9750    0.0000 H   0  0  0  0  0  0  0  0  0  0  0  0
    5.6025    2.9750    0.0000 H   0  0  0  0  0  0  0  0  0  0  0  0
    2.5369    3.1200    0.0000 H   0  0  0  0  0  0  0  0  0  0  0  0
    2.0000    0.8100    0.0000 H   0  0  0  0  0  0  0  0  0  0  0  0
    4.8059    3.8100    0.0000 H   0  0  0  0  0  0  0  0  0  0  0  0
    5.6720   -0.6900    0.0000 H   0  0  0  0  0  0  0  0  0  0  0  0
    2.8660   -2.3100    0.0000 H   0  0  0  0  0  0  0  0  0  0  0  0
    7.4040    2.3100    0.0000 H   0  0  0  0  0  0  0  0  0  0  0  0
    5.6720   -2.3100    0.0000 H   0  0  0  0  0  0  0  0  0  0  0  0
    2.0000   -0.8100    0.0000 H   0  0  0  0  0  0  0  0  0  0  0  0
    4.8059   -3.8100    0.0000 H   0  0  0  0  0  0  0  0  0  0  0  0
  1 11  1  0  0  0  0
  1 12  1  0  0  0  0
  8  2  1  1  0  0  0
  2 27  1  0  0  0  0
  9  3  1  6  0  0  0
  3 28  1  0  0  0  0
 10  4  1  6  0  0  0
  4 29  1  0  0  0  0
  5 14  1  0  0  0  0
  5 32  1  0  0  0  0
  6 15  1  0  0  0  0
  6 34  1  0  0  0  0
  7 19  1  0  0  0  0
  7 35  1  0  0  0  0
  8  9  1  0  0  0  0
  8 10  1  0  0  0  0
  8 20  1  0  0  0  0
  9 11  1  0  0  0  0
  9 21  1  0  0  0  0
 10 12  1  0  0  0  0
 10 22  1  0  0  0  0
 11 13  1  0  0  0  0
 11 23  1  6  0  0  0
 12 14  1  1  0  0  0
 12 24  1  0  0  0  0
 13 15  2  0  0  0  0
 13 16  1  0  0  0  0
 14 25  1  0  0  0  0
 14 26  1  0  0  0  0
 15 17  1  0  0  0  0
 16 18  2  0  0  0  0
 16 30  1  0  0  0  0
 17 19  2  0  0  0  0
 17 31  1  0  0  0  0
 18 19  1  0  0  0  0
 18 33  1  0  0  0  0
M  END
> <PUBCHEM_COMPOUND_CID>
91234545

> <PUBCHEM_COMPOUND_CANONICALIZED>
1

> <PUBCHEM_CACTVS_COMPLEXITY>
300

> <PUBCHEM_CACTVS_HBOND_ACCEPTOR>
7

> <PUBCHEM_CACTVS_HBOND_DONOR>
6

> <PUBCHEM_CACTVS_ROTATABLE_BOND>
2

> <PUBCHEM_CACTVS_SUBSKEYS>
AAADceBwOAAAAAAAAAAAAAAAAAAAAAAAAAA0QAAAAAAAAAABAAAAGgAACAAADBSgmAIwBoAABgCAAiBCAAACAAAgIAAIiAAGCIgJNyKCMRqCcAAlwBULuAfA4PwOIAAACAAIAABAAAAQABAAAAAAAAAAAA==

> <PUBCHEM_IUPAC_OPENEYE_NAME>
(2S,3R,4R,5S,6R)-2-(2,4-dihydroxyphenyl)-6-(hydroxymethyl)tetrahydropyran-3,4,5-triol

> <PUBCHEM_IUPAC_CAS_NAME>
(2S,3R,4R,5S,6R)-2-(2,4-dihydroxyphenyl)-6-(hydroxymethyl)oxane-3,4,5-triol

> <PUBCHEM_IUPAC_NAME_MARKUP>
(2<I>S</I>,3<I>R</I>,4<I>R</I>,5<I>S</I>,6<I>R</I>)-2-(2,4-dihydroxyphenyl)-6-(hydroxymethyl)oxane-3,4,5-triol

> <PUBCHEM_IUPAC_NAME>
(2S,3R,4R,5S,6R)-2-(2,4-dihydroxyphenyl)-6-(hydroxymethyl)oxane-3,4,5-triol

> <PUBCHEM_IUPAC_SYSTEMATIC_NAME>
(2S,3R,4R,5S,6R)-2-[2,4-bis(oxidanyl)phenyl]-6-(hydroxymethyl)oxane-3,4,5-triol

> <PUBCHEM_IUPAC_TRADITIONAL_NAME>
(2S,3R,4R,5S,6R)-2-(2,4-dihydroxyphenyl)-6-methylol-tetrahydropyran-3,4,5-triol

> <PUBCHEM_IUPAC_INCHI>
InChI=1S/C12H16O7/c13-4-8-9(16)10(17)11(18)12(19-8)6-2-1-5(14)3-7(6)15/h1-3,8-18H,4H2/t8-,9-,10+,11-,12+/m1/s1

> <PUBCHEM_IUPAC_INCHIKEY>
PDXPEMLNNWECAR-ZIQFBCGOSA-N

> <PUBCHEM_XLOGP3_AA>
-1.2

> <PUBCHEM_EXACT_MASS>
272.08960285

> <PUBCHEM_MOLECULAR_FORMULA>
C12H16O7

> <PUBCHEM_MOLECULAR_WEIGHT>
272.25

> <PUBCHEM_OPENEYE_CAN_SMILES>
C1=CC(=C(C=C1O)O)C2C(C(C(C(O2)CO)O)O)O

> <PUBCHEM_OPENEYE_ISO_SMILES>
C1=CC(=C(C=C1O)O)[C@H]2[C@@H]([C@H]([C@@H]([C@H](O2)CO)O)O)O

> <PUBCHEM_CACTVS_TPSA>
131

> <PUBCHEM_MONOISOTOPIC_WEIGHT>
272.08960285

> <PUBCHEM_TOTAL_CHARGE>
0

> <PUBCHEM_HEAVY_ATOM_COUNT>
19

> <PUBCHEM_ATOM_DEF_STEREO_COUNT>
5

> <PUBCHEM_ATOM_UDEF_STEREO_COUNT>
0

> <PUBCHEM_BOND_DEF_STEREO_COUNT>
0

> <PUBCHEM_BOND_UDEF_STEREO_COUNT>
0

> <PUBCHEM_ISOTOPIC_ATOM_COUNT>
0

> <PUBCHEM_COMPONENT_COUNT>
1

> <PUBCHEM_CACTVS_TAUTO_COUNT>
-1

> <PUBCHEM_COORDINATE_TYPE>
1
5
255

> <PUBCHEM_BONDANNOTATIONS>
11  23  6
12  14  5
13  15  8
13  16  8
15  17  8
16  18  8
17  19  8
18  19  8
8  2  5
9  3  6
10  4  6

$$$$
