 
  -OEChem-10192103322D

 49 50  0     1  0  0  0  0  0999 V2000
   12.3923    1.6550    0.0000 O   0  0  0  0  0  0  0  0  0  0  0  0
    2.8660   -1.8450    0.0000 O   0  0  0  0  0  0  0  0  0  0  0  0
   11.5263    3.1550    0.0000 O   0  5  0  0  0  0  0  0  0  0  0  0
    9.7942    3.1550    0.0000 O   0  0  0  0  0  0  0  0  0  0  0  0
   11.5263   -2.8450    0.0000 O   0  0  0  0  0  0  0  0  0  0  0  0
    2.0000   -0.3450    0.0000 O   0  5  0  0  0  0  0  0  0  0  0  0
    2.8660    1.1550    0.0000 O   0  0  0  0  0  0  0  0  0  0  0  0
   12.3923   -1.3450    0.0000 O   0  0  0  0  0  0  0  0  0  0  0  0
    9.7942    1.1550    0.0000 N   0  0  0  0  0  0  0  0  0  0  0  0
    8.0622    0.1550    0.0000 N   0  0  0  0  0  0  0  0  0  0  0  0
    4.5981    0.1550    0.0000 N   0  0  0  0  0  0  0  0  0  0  0  0
   10.6603    2.6550    0.0000 N   0  3  0  0  0  0  0  0  0  0  0  0
    2.8660    0.1550    0.0000 N   0  3  0  0  0  0  0  0  0  0  0  0
    9.7942    0.1550    0.0000 C   0  0  0  0  0  0  0  0  0  0  0  0
    8.9282   -0.3450    0.0000 C   0  0  0  0  0  0  0  0  0  0  0  0
   10.6603    1.6550    0.0000 C   0  0  3  0  0  0  0  0  0  0  0  0
    7.1962   -0.3450    0.0000 C   0  0  0  0  0  0  0  0  0  0  0  0
    5.4641   -0.3450    0.0000 C   0  0  0  0  0  0  0  0  0  0  0  0
    3.7320   -0.3450    0.0000 C   0  0  3  0  0  0  0  0  0  0  0  0
   10.6603   -0.3450    0.0000 C   0  0  0  0  0  0  0  0  0  0  0  0
    6.3301    0.1550    0.0000 C   0  0  0  0  0  0  0  0  0  0  0  0
    8.9282   -1.3450    0.0000 C   0  0  0  0  0  0  0  0  0  0  0  0
   10.6603   -1.3450    0.0000 C   0  0  0  0  0  0  0  0  0  0  0  0
   11.5263    1.1550    0.0000 C   0  0  0  0  0  0  0  0  0  0  0  0
    9.7942   -1.8450    0.0000 C   0  0  0  0  0  0  0  0  0  0  0  0
    7.1962   -1.3450    0.0000 C   0  0  0  0  0  0  0  0  0  0  0  0
    5.4641   -1.3450    0.0000 C   0  0  0  0  0  0  0  0  0  0  0  0
    3.7320   -1.3450    0.0000 C   0  0  0  0  0  0  0  0  0  0  0  0
    6.3301   -1.8450    0.0000 C   0  0  0  0  0  0  0  0  0  0  0  0
   11.5263   -1.8450    0.0000 C   0  0  0  0  0  0  0  0  0  0  0  0
   11.1972    1.9650    0.0000 H   0  0  0  0  0  0  0  0  0  0  0  0
    9.2573    1.4650    0.0000 H   0  0  0  0  0  0  0  0  0  0  0  0
    8.0622    0.7750    0.0000 H   0  0  0  0  0  0  0  0  0  0  0  0
    3.7320    0.2750    0.0000 H   0  0  0  0  0  0  0  0  0  0  0  0
   11.1972   -0.0350    0.0000 H   0  0  0  0  0  0  0  0  0  0  0  0
    6.3301    0.7750    0.0000 H   0  0  0  0  0  0  0  0  0  0  0  0
    8.3913   -1.6550    0.0000 H   0  0  0  0  0  0  0  0  0  0  0  0
    4.5981    0.7750    0.0000 H   0  0  0  0  0  0  0  0  0  0  0  0
   11.1278    0.6801    0.0000 H   0  0  0  0  0  0  0  0  0  0  0  0
   11.9248    0.6801    0.0000 H   0  0  0  0  0  0  0  0  0  0  0  0
    9.7942   -2.4650    0.0000 H   0  0  0  0  0  0  0  0  0  0  0  0
    7.7331   -1.6550    0.0000 H   0  0  0  0  0  0  0  0  0  0  0  0
    4.9272   -1.6550    0.0000 H   0  0  0  0  0  0  0  0  0  0  0  0
    3.9441   -1.9276    0.0000 H   0  0  0  0  0  0  0  0  0  0  0  0
    4.3426   -1.2373    0.0000 H   0  0  0  0  0  0  0  0  0  0  0  0
    6.3301   -2.4650    0.0000 H   0  0  0  0  0  0  0  0  0  0  0  0
   12.9292    1.3450    0.0000 H   0  0  0  0  0  0  0  0  0  0  0  0
    2.8660   -2.4650    0.0000 H   0  0  0  0  0  0  0  0  0  0  0  0
   12.0632   -3.1550    0.0000 H   0  0  0  0  0  0  0  0  0  0  0  0
  1 24  1  0  0  0  0
  1 47  1  0  0  0  0
  2 28  1  0  0  0  0
  2 48  1  0  0  0  0
  3 12  1  0  0  0  0
  4 12  2  0  0  0  0
  5 30  1  0  0  0  0
  5 49  1  0  0  0  0
  6 13  1  0  0  0  0
  7 13  2  0  0  0  0
  8 30  2  0  0  0  0
  9 14  1  0  0  0  0
  9 16  1  0  0  0  0
  9 32  1  0  0  0  0
 10 15  1  0  0  0  0
 10 17  1  0  0  0  0
 10 33  1  0  0  0  0
 11 18  1  0  0  0  0
 11 19  1  0  0  0  0
 11 38  1  0  0  0  0
 12 16  1  0  0  0  0
 13 19  1  0  0  0  0
 14 15  2  0  0  0  0
 14 20  1  0  0  0  0
 15 22  1  0  0  0  0
 16 24  1  0  0  0  0
 16 31  1  0  0  0  0
 17 21  2  0  0  0  0
 17 26  1  0  0  0  0
 18 21  1  0  0  0  0
 18 27  2  0  0  0  0
 19 28  1  0  0  0  0
 19 34  1  0  0  0  0
 20 23  2  0  0  0  0
 20 35  1  0  0  0  0
 21 36  1  0  0  0  0
 22 25  2  0  0  0  0
 22 37  1  0  0  0  0
 23 25  1  0  0  0  0
 23 30  1  0  0  0  0
 24 39  1  0  0  0  0
 24 40  1  0  0  0  0
 25 41  1  0  0  0  0
 26 29  2  0  0  0  0
 26 42  1  0  0  0  0
 27 29  1  0  0  0  0
 27 43  1  0  0  0  0
 28 44  1  0  0  0  0
 28 45  1  0  0  0  0
 29 46  1  0  0  0  0
M  CHG  4   3  -1   6  -1  12   1  13   1
M  END
> <PUBCHEM_COMPOUND_CID>
88626371

> <PUBCHEM_COMPOUND_CANONICALIZED>
1

> <PUBCHEM_CACTVS_COMPLEXITY>
598

> <PUBCHEM_CACTVS_HBOND_ACCEPTOR>
11

> <PUBCHEM_CACTVS_HBOND_DONOR>
6

> <PUBCHEM_CACTVS_ROTATABLE_BOND>
9

> <PUBCHEM_CACTVS_SUBSKEYS>
AAADceB7vAAAAAAAAAAAAAAAAAAAAAAAAAAwYAAAAAAAAAABQAAAHgAUCAAADAjhmAYxyILQQgCJAiTSSwCCAAAlAgAoiIEIfMiKdnLA1dGUcQhk0APY2ae82SOeCAAAQAQAACAQAACACAAAQAAAAAAAAA==

> <PUBCHEM_IUPAC_OPENEYE_NAME>
3-[(2-hydroxy-1-nitro-ethyl)amino]-4-[3-[(2-hydroxy-1-nitro-ethyl)amino]anilino]benzoic acid

> <PUBCHEM_IUPAC_CAS_NAME>
3-[(2-hydroxy-1-nitroethyl)amino]-4-[3-[(2-hydroxy-1-nitroethyl)amino]anilino]benzoic acid

> <PUBCHEM_IUPAC_NAME_MARKUP>
3-[(2-hydroxy-1-nitroethyl)amino]-4-[3-[(2-hydroxy-1-nitroethyl)amino]anilino]benzoic acid

> <PUBCHEM_IUPAC_NAME>
3-[(2-hydroxy-1-nitroethyl)amino]-4-[3-[(2-hydroxy-1-nitroethyl)amino]anilino]benzoic acid

> <PUBCHEM_IUPAC_SYSTEMATIC_NAME>
3-[(1-nitro-2-oxidanyl-ethyl)amino]-4-[[3-[(1-nitro-2-oxidanyl-ethyl)amino]phenyl]amino]benzoic acid

> <PUBCHEM_IUPAC_TRADITIONAL_NAME>
3-[(2-hydroxy-1-nitro-ethyl)amino]-4-[3-[(2-hydroxy-1-nitro-ethyl)amino]anilino]benzoic acid

> <PUBCHEM_IUPAC_INCHI>
InChI=1S/C17H19N5O8/c23-8-15(21(27)28)19-12-3-1-2-11(7-12)18-13-5-4-10(17(25)26)6-14(13)20-16(9-24)22(29)30/h1-7,15-16,18-20,23-24H,8-9H2,(H,25,26)

> <PUBCHEM_IUPAC_INCHIKEY>
RSTVOPIJCVOTEJ-UHFFFAOYSA-N

> <PUBCHEM_XLOGP3_AA>
1.5

> <PUBCHEM_EXACT_MASS>
421.12336258

> <PUBCHEM_MOLECULAR_FORMULA>
C17H19N5O8

> <PUBCHEM_MOLECULAR_WEIGHT>
421.4

> <PUBCHEM_OPENEYE_CAN_SMILES>
C1=CC(=CC(=C1)NC(CO)[N+](=O)[O-])NC2=C(C=C(C=C2)C(=O)O)NC(CO)[N+](=O)[O-]

> <PUBCHEM_OPENEYE_ISO_SMILES>
C1=CC(=CC(=C1)NC(CO)[N+](=O)[O-])NC2=C(C=C(C=C2)C(=O)O)NC(CO)[N+](=O)[O-]

> <PUBCHEM_CACTVS_TPSA>
206

> <PUBCHEM_MONOISOTOPIC_WEIGHT>
421.12336258

> <PUBCHEM_TOTAL_CHARGE>
0

> <PUBCHEM_HEAVY_ATOM_COUNT>
30

> <PUBCHEM_ATOM_DEF_STEREO_COUNT>
0

> <PUBCHEM_ATOM_UDEF_STEREO_COUNT>
2

> <PUBCHEM_BOND_DEF_STEREO_COUNT>
0

> <PUBCHEM_BOND_UDEF_STEREO_COUNT>
0

> <PUBCHEM_ISOTOPIC_ATOM_COUNT>
0

> <PUBCHEM_COMPONENT_COUNT>
1

> <PUBCHEM_CACTVS_TAUTO_COUNT>
-1

> <PUBCHEM_COORDINATE_TYPE>
1
5
255

> <PUBCHEM_BONDANNOTATIONS>
14  15  8
14  20  8
15  22  8
16  24  3
17  21  8
17  26  8
18  21  8
18  27  8
19  28  3
20  23  8
22  25  8
23  25  8
26  29  8
27  29  8

$$$$
