 
  -OEChem-10192104402D

 74 73  0     1  0  0  0  0  0999 V2000
    8.0622   -0.9050    0.0000 O   0  0  0  0  0  0  0  0  0  0  0  0
   10.6603    1.5950    0.0000 O   0  0  0  0  0  0  0  0  0  0  0  0
   13.2583    2.0950    0.0000 O   0  0  0  0  0  0  0  0  0  0  0  0
    3.7320   -1.4050    0.0000 O   0  0  0  0  0  0  0  0  0  0  0  0
    5.4641    1.5950    0.0000 O   0  0  0  0  0  0  0  0  0  0  0  0
   13.2583   -0.9050    0.0000 O   0  0  0  0  0  0  0  0  0  0  0  0
    8.9282    3.5950    0.0000 O   0  0  0  0  0  0  0  0  0  0  0  0
    7.1962    3.5950    0.0000 O   0  0  0  0  0  0  0  0  0  0  0  0
    2.8660   -0.9050    0.0000 O   0  0  0  0  0  0  0  0  0  0  0  0
    8.9282    0.5950    0.0000 N   0  0  0  0  0  0  0  0  0  0  0  0
    6.3301    0.0950    0.0000 N   0  0  0  0  0  0  0  0  0  0  0  0
   11.5263    0.0950    0.0000 N   0  0  0  0  0  0  0  0  0  0  0  0
    3.7320    0.5950    0.0000 N   0  0  0  0  0  0  0  0  0  0  0  0
   11.5263   -3.9050    0.0000 N   0  0  0  0  0  0  0  0  0  0  0  0
   14.1244    0.5950    0.0000 N   0  0  0  0  0  0  0  0  0  0  0  0
    9.7942    0.0950    0.0000 C   0  0  1  0  0  0  0  0  0  0  0  0
    9.7942   -0.9050    0.0000 C   0  0  0  0  0  0  0  0  0  0  0  0
    7.1962    0.5950    0.0000 C   0  0  3  0  0  0  0  0  0  0  0  0
   10.6603   -1.4050    0.0000 C   0  0  0  0  0  0  0  0  0  0  0  0
    7.1962    1.5950    0.0000 C   0  0  0  0  0  0  0  0  0  0  0  0
    8.0622    0.0950    0.0000 C   0  0  0  0  0  0  0  0  0  0  0  0
   10.6603    0.5950    0.0000 C   0  0  0  0  0  0  0  0  0  0  0  0
   10.6603   -2.4050    0.0000 C   0  0  0  0  0  0  0  0  0  0  0  0
   12.3923    0.5950    0.0000 C   0  0  3  0  0  0  0  0  0  0  0  0
    4.5981    0.0950    0.0000 C   0  0  3  0  0  0  0  0  0  0  0  0
    5.4641    0.5950    0.0000 C   0  0  0  0  0  0  0  0  0  0  0  0
    8.0622    2.0950    0.0000 C   0  0  0  0  0  0  0  0  0  0  0  0
   12.3923    1.5950    0.0000 C   0  0  2  0  0  0  0  0  0  0  0  0
   11.5263   -2.9050    0.0000 C   0  0  0  0  0  0  0  0  0  0  0  0
    4.5981   -0.9050    0.0000 C   0  0  1  0  0  0  0  0  0  0  0  0
   13.2583    0.0950    0.0000 C   0  0  0  0  0  0  0  0  0  0  0  0
   11.5263    2.0950    0.0000 C   0  0  0  0  0  0  0  0  0  0  0  0
    5.4641   -1.4050    0.0000 C   0  0  0  0  0  0  0  0  0  0  0  0
    8.0622    3.0950    0.0000 C   0  0  0  0  0  0  0  0  0  0  0  0
    2.8660    0.0950    0.0000 C   0  0  0  0  0  0  0  0  0  0  0  0
    2.0000    0.5950    0.0000 C   0  0  0  0  0  0  0  0  0  0  0  0
    9.2573   -0.2150    0.0000 H   0  0  0  0  0  0  0  0  0  0  0  0
    9.1836   -0.7973    0.0000 H   0  0  0  0  0  0  0  0  0  0  0  0
    9.5822   -1.4876    0.0000 H   0  0  0  0  0  0  0  0  0  0  0  0
    6.6592    0.9050    0.0000 H   0  0  0  0  0  0  0  0  0  0  0  0
   11.2708   -1.5127    0.0000 H   0  0  0  0  0  0  0  0  0  0  0  0
   10.8723   -0.8224    0.0000 H   0  0  0  0  0  0  0  0  0  0  0  0
    8.9282    1.2150    0.0000 H   0  0  0  0  0  0  0  0  0  0  0  0
    6.9841    2.1776    0.0000 H   0  0  0  0  0  0  0  0  0  0  0  0
    6.5856    1.4873    0.0000 H   0  0  0  0  0  0  0  0  0  0  0  0
   10.0497   -2.2973    0.0000 H   0  0  0  0  0  0  0  0  0  0  0  0
   10.4482   -2.9876    0.0000 H   0  0  0  0  0  0  0  0  0  0  0  0
    6.3301   -0.5250    0.0000 H   0  0  0  0  0  0  0  0  0  0  0  0
   11.8554    0.9050    0.0000 H   0  0  0  0  0  0  0  0  0  0  0  0
    4.5981    0.7150    0.0000 H   0  0  0  0  0  0  0  0  0  0  0  0
   11.5263   -0.5250    0.0000 H   0  0  0  0  0  0  0  0  0  0  0  0
    8.2742    1.5124    0.0000 H   0  0  0  0  0  0  0  0  0  0  0  0
    8.6728    2.2027    0.0000 H   0  0  0  0  0  0  0  0  0  0  0  0
   12.3923    2.2150    0.0000 H   0  0  0  0  0  0  0  0  0  0  0  0
   12.1369   -3.0127    0.0000 H   0  0  0  0  0  0  0  0  0  0  0  0
   11.7383   -2.3224    0.0000 H   0  0  0  0  0  0  0  0  0  0  0  0
    4.5981   -1.5250    0.0000 H   0  0  0  0  0  0  0  0  0  0  0  0
    3.7320    1.2150    0.0000 H   0  0  0  0  0  0  0  0  0  0  0  0
   11.8363    2.6319    0.0000 H   0  0  0  0  0  0  0  0  0  0  0  0
   10.9893    2.4050    0.0000 H   0  0  0  0  0  0  0  0  0  0  0  0
   11.2163    1.5581    0.0000 H   0  0  0  0  0  0  0  0  0  0  0  0
    5.1541   -1.9419    0.0000 H   0  0  0  0  0  0  0  0  0  0  0  0
    6.0010   -1.7150    0.0000 H   0  0  0  0  0  0  0  0  0  0  0  0
    5.7741   -0.8681    0.0000 H   0  0  0  0  0  0  0  0  0  0  0  0
   12.0632   -4.2150    0.0000 H   0  0  0  0  0  0  0  0  0  0  0  0
   10.9893   -4.2150    0.0000 H   0  0  0  0  0  0  0  0  0  0  0  0
   13.2583    2.7150    0.0000 H   0  0  0  0  0  0  0  0  0  0  0  0
    3.7320   -2.0250    0.0000 H   0  0  0  0  0  0  0  0  0  0  0  0
   14.6613    0.2850    0.0000 H   0  0  0  0  0  0  0  0  0  0  0  0
   14.1244    1.2150    0.0000 H   0  0  0  0  0  0  0  0  0  0  0  0
    2.3100    1.1319    0.0000 H   0  0  0  0  0  0  0  0  0  0  0  0
    1.4631    0.9050    0.0000 H   0  0  0  0  0  0  0  0  0  0  0  0
    1.6900    0.0581    0.0000 H   0  0  0  0  0  0  0  0  0  0  0  0
    8.9282    4.2150    0.0000 H   0  0  0  0  0  0  0  0  0  0  0  0
  1 21  2  0  0  0  0
  2 22  2  0  0  0  0
 28  3  1  6  0  0  0
  3 67  1  0  0  0  0
 30  4  1  1  0  0  0
  4 68  1  0  0  0  0
  5 26  2  0  0  0  0
  6 31  2  0  0  0  0
  7 34  1  0  0  0  0
  7 74  1  0  0  0  0
  8 34  2  0  0  0  0
  9 35  2  0  0  0  0
 16 10  1  6  0  0  0
 10 21  1  0  0  0  0
 10 43  1  0  0  0  0
 11 18  1  0  0  0  0
 11 26  1  0  0  0  0
 11 48  1  0  0  0  0
 12 22  1  0  0  0  0
 12 24  1  0  0  0  0
 12 51  1  0  0  0  0
 13 25  1  0  0  0  0
 13 35  1  0  0  0  0
 13 58  1  0  0  0  0
 14 29  1  0  0  0  0
 14 65  1  0  0  0  0
 14 66  1  0  0  0  0
 15 31  1  0  0  0  0
 15 69  1  0  0  0  0
 15 70  1  0  0  0  0
 16 17  1  0  0  0  0
 16 22  1  0  0  0  0
 16 37  1  0  0  0  0
 17 19  1  0  0  0  0
 17 38  1  0  0  0  0
 17 39  1  0  0  0  0
 18 20  1  0  0  0  0
 18 21  1  0  0  0  0
 18 40  1  0  0  0  0
 19 23  1  0  0  0  0
 19 41  1  0  0  0  0
 19 42  1  0  0  0  0
 20 27  1  0  0  0  0
 20 44  1  0  0  0  0
 20 45  1  0  0  0  0
 23 29  1  0  0  0  0
 23 46  1  0  0  0  0
 23 47  1  0  0  0  0
 24 28  1  0  0  0  0
 24 31  1  0  0  0  0
 24 49  1  0  0  0  0
 25 26  1  0  0  0  0
 25 30  1  0  0  0  0
 25 50  1  0  0  0  0
 27 34  1  0  0  0  0
 27 52  1  0  0  0  0
 27 53  1  0  0  0  0
 28 32  1  0  0  0  0
 28 54  1  0  0  0  0
 29 55  1  0  0  0  0
 29 56  1  0  0  0  0
 30 33  1  0  0  0  0
 30 57  1  0  0  0  0
 32 59  1  0  0  0  0
 32 60  1  0  0  0  0
 32 61  1  0  0  0  0
 33 62  1  0  0  0  0
 33 63  1  0  0  0  0
 33 64  1  0  0  0  0
 35 36  1  0  0  0  0
 36 71  1  0  0  0  0
 36 72  1  0  0  0  0
 36 73  1  0  0  0  0
M  END
> <PUBCHEM_COMPOUND_CID>
137446185

> <PUBCHEM_COMPOUND_CANONICALIZED>
1

> <PUBCHEM_CACTVS_COMPLEXITY>
794

> <PUBCHEM_CACTVS_HBOND_ACCEPTOR>
10

> <PUBCHEM_CACTVS_HBOND_DONOR>
9

> <PUBCHEM_CACTVS_ROTATABLE_BOND>
17

> <PUBCHEM_CACTVS_SUBSKEYS>
AAADcfB7vAAAAAAAAAAAAAAAAAAAAAAAAAAAAAAAAAAAAAAAAAAAHgAQCAAACDzhgAYCCALAAgAIAAGQGAAAAAAAAAAAAIGIAAACUBYAgCAUQAAGNgCQAAG8HwIAAAAAAAAAAAAAAAAAAAAAAAAAAAAAAA==

> <PUBCHEM_IUPAC_OPENEYE_NAME>
4-[[(3R)-2-acetamido-3-hydroxy-butanoyl]amino]-5-[[(1S)-5-amino-1-[[(2S)-1-carbamoyl-2-hydroxy-propyl]carbamoyl]pentyl]amino]-5-oxo-pentanoic acid

> <PUBCHEM_IUPAC_CAS_NAME>
4-[[(3R)-2-acetamido-3-hydroxy-1-oxobutyl]amino]-5-[[(2S)-6-amino-1-[[(3S)-1-amino-3-hydroxy-1-oxobutan-2-yl]amino]-1-oxohexan-2-yl]amino]-5-oxopentanoic acid

> <PUBCHEM_IUPAC_NAME_MARKUP>
4-[[(3<I>R</I>)-2-acetamido-3-hydroxybutanoyl]amino]-5-[[(2<I>S</I>)-6-amino-1-[[(3<I>S</I>)-1-amino-3-hydroxy-1-oxobutan-2-yl]amino]-1-oxohexan-2-yl]amino]-5-oxopentanoic acid

> <PUBCHEM_IUPAC_NAME>
4-[[(3R)-2-acetamido-3-hydroxybutanoyl]amino]-5-[[(2S)-6-amino-1-[[(3S)-1-amino-3-hydroxy-1-oxobutan-2-yl]amino]-1-oxohexan-2-yl]amino]-5-oxopentanoic acid

> <PUBCHEM_IUPAC_SYSTEMATIC_NAME>
4-[[(3R)-2-acetamido-3-oxidanyl-butanoyl]amino]-5-[[(2S)-6-azanyl-1-[[(3S)-1-azanyl-3-oxidanyl-1-oxidanylidene-butan-2-yl]amino]-1-oxidanylidene-hexan-2-yl]amino]-5-oxidanylidene-pentanoic acid

> <PUBCHEM_IUPAC_TRADITIONAL_NAME>
4-[[(3R)-2-acetamido-3-hydroxy-butanoyl]amino]-5-[[(1S)-5-amino-1-[[(2S)-1-carbamoyl-2-hydroxy-propyl]carbamoyl]pentyl]amino]-5-keto-valeric acid

> <PUBCHEM_IUPAC_INCHI>
InChI=1S/C21H38N6O9/c1-10(28)16(18(23)33)27-20(35)13(6-4-5-9-22)25-19(34)14(7-8-15(31)32)26-21(36)17(11(2)29)24-12(3)30/h10-11,13-14,16-17,28-29H,4-9,22H2,1-3H3,(H2,23,33)(H,24,30)(H,25,34)(H,26,36)(H,27,35)(H,31,32)/t10-,11+,13-,14?,16?,17?/m0/s1

> <PUBCHEM_IUPAC_INCHIKEY>
IEMBIWZQSFRORR-ZTXHPDSGSA-N

> <PUBCHEM_XLOGP3_AA>
-6.1

> <PUBCHEM_EXACT_MASS>
518.27002681

> <PUBCHEM_MOLECULAR_FORMULA>
C21H38N6O9

> <PUBCHEM_MOLECULAR_WEIGHT>
518.6

> <PUBCHEM_OPENEYE_CAN_SMILES>
CC(C(C(=O)N)NC(=O)C(CCCCN)NC(=O)C(CCC(=O)O)NC(=O)C(C(C)O)NC(=O)C)O

> <PUBCHEM_OPENEYE_ISO_SMILES>
C[C@@H](C(C(=O)N)NC(=O)[C@H](CCCCN)NC(=O)C(CCC(=O)O)NC(=O)C([C@@H](C)O)NC(=O)C)O

> <PUBCHEM_CACTVS_TPSA>
263

> <PUBCHEM_MONOISOTOPIC_WEIGHT>
518.27002681

> <PUBCHEM_TOTAL_CHARGE>
0

> <PUBCHEM_HEAVY_ATOM_COUNT>
36

> <PUBCHEM_ATOM_DEF_STEREO_COUNT>
3

> <PUBCHEM_ATOM_UDEF_STEREO_COUNT>
3

> <PUBCHEM_BOND_DEF_STEREO_COUNT>
0

> <PUBCHEM_BOND_UDEF_STEREO_COUNT>
0

> <PUBCHEM_ISOTOPIC_ATOM_COUNT>
0

> <PUBCHEM_COMPONENT_COUNT>
1

> <PUBCHEM_CACTVS_TAUTO_COUNT>
-1

> <PUBCHEM_COORDINATE_TYPE>
1
5
255

> <PUBCHEM_BONDANNOTATIONS>
16  10  6
18  20  3
24  31  3
25  26  3
28  3  6
30  4  5

$$$$
