 
  -OEChem-10192103482D

 30 31  0     1  0  0  0  0  0999 V2000
    8.2972   -1.4858    0.0000 P   0  0  3  0  0  0  0  0  0  0  0  0
    5.3781   -0.4774    0.0000 O   0  0  0  0  0  0  0  0  0  0  0  0
    6.4659    1.8705    0.0000 O   0  0  0  0  0  0  0  0  0  0  0  0
    4.2903    1.8705    0.0000 O   0  0  0  0  0  0  0  0  0  0  0  0
    7.3461   -1.1768    0.0000 O   0  0  0  0  0  0  0  0  0  0  0  0
    9.2482   -1.7948    0.0000 O   0  0  0  0  0  0  0  0  0  0  0  0
    7.9881   -2.4369    0.0000 O   0  5  0  0  0  0  0  0  0  0  0  0
    8.6062   -0.5347    0.0000 O   0  0  0  0  0  0  0  0  0  0  0  0
    3.6180   -0.1986    0.0000 N   0  0  0  0  0  0  0  0  0  0  0  0
    2.0000   -0.1986    0.0000 N   0  0  0  0  0  0  0  0  0  0  0  0
    5.8781    1.0614    0.0000 C   0  0  1  0  0  0  0  0  0  0  0  0
    4.8781    1.0614    0.0000 C   0  0  2  0  0  0  0  0  0  0  0  0
    6.1871    0.1104    0.0000 C   0  0  1  0  0  0  0  0  0  0  0  0
    4.5691    0.1104    0.0000 C   0  0  1  0  0  0  0  0  0  0  0  0
    7.1382   -0.1986    0.0000 C   0  0  0  0  0  0  0  0  0  0  0  0
    3.3090   -1.1497    0.0000 C   0  0  0  0  0  0  0  0  0  0  0  0
    2.8090    0.3892    0.0000 C   0  0  0  0  0  0  0  0  0  0  0  0
    2.3090   -1.1497    0.0000 C   0  0  0  0  0  0  0  0  0  0  0  0
    5.5966    1.6139    0.0000 H   0  0  0  0  0  0  0  0  0  0  0  0
    5.1596    1.6139    0.0000 H   0  0  0  0  0  0  0  0  0  0  0  0
    6.2841   -0.5020    0.0000 H   0  0  0  0  0  0  0  0  0  0  0  0
    4.1307    0.5488    0.0000 H   0  0  0  0  0  0  0  0  0  0  0  0
    7.7578   -0.1770    0.0000 H   0  0  0  0  0  0  0  0  0  0  0  0
    7.2245    0.4153    0.0000 H   0  0  0  0  0  0  0  0  0  0  0  0
    7.0825    1.8056    0.0000 H   0  0  0  0  0  0  0  0  0  0  0  0
    4.5425    2.4369    0.0000 H   0  0  0  0  0  0  0  0  0  0  0  0
    3.6734   -1.6513    0.0000 H   0  0  0  0  0  0  0  0  0  0  0  0
    2.8090    1.0092    0.0000 H   0  0  0  0  0  0  0  0  0  0  0  0
    1.9446   -1.6513    0.0000 H   0  0  0  0  0  0  0  0  0  0  0  0
    9.3771   -2.4013    0.0000 H   0  0  0  0  0  0  0  0  0  0  0  0
  1  5  1  0  0  0  0
  1  6  1  0  0  0  0
  1  7  1  0  0  0  0
  1  8  2  0  0  0  0
  2 13  1  0  0  0  0
  2 14  1  0  0  0  0
 11  3  1  6  0  0  0
  3 25  1  0  0  0  0
 12  4  1  6  0  0  0
  4 26  1  0  0  0  0
  5 15  1  0  0  0  0
  6 30  1  0  0  0  0
 14  9  1  1  0  0  0
  9 16  1  0  0  0  0
  9 17  1  0  0  0  0
 10 17  2  0  0  0  0
 10 18  1  0  0  0  0
 11 12  1  0  0  0  0
 11 13  1  0  0  0  0
 11 19  1  0  0  0  0
 12 14  1  0  0  0  0
 12 20  1  0  0  0  0
 13 15  1  1  0  0  0
 13 21  1  0  0  0  0
 14 22  1  0  0  0  0
 15 23  1  0  0  0  0
 15 24  1  0  0  0  0
 16 18  2  0  0  0  0
 16 27  1  0  0  0  0
 17 28  1  0  0  0  0
 18 29  1  0  0  0  0
M  CHG  1   7  -1
M  END
> <PUBCHEM_COMPOUND_CID>
24971459

> <PUBCHEM_COMPOUND_CANONICALIZED>
1

> <PUBCHEM_CACTVS_COMPLEXITY>
335

> <PUBCHEM_CACTVS_HBOND_ACCEPTOR>
8

> <PUBCHEM_CACTVS_HBOND_DONOR>
3

> <PUBCHEM_CACTVS_ROTATABLE_BOND>
4

> <PUBCHEM_CACTVS_SUBSKEYS>
AAADccBzOAIAAAAAAAAAAAAAAAAAAWJAAAAAAAAAAAAAAAABgAAAHgAACCAACBThggYtkBcMFxCgQBAnZIAAgC0REqAJQAAYMACDWAIAiAAeQAAPAAKTACDwMAIAAAAAAAAAAAAAAAAAAAAAAAAAAAAAAA==

> <PUBCHEM_IUPAC_OPENEYE_NAME>
[(2R,3S,4R,5R)-3,4-dihydroxy-5-imidazol-1-yl-tetrahydrofuran-2-yl]methyl hydrogen phosphate

> <PUBCHEM_IUPAC_CAS_NAME>
[(2R,3S,4R,5R)-3,4-dihydroxy-5-(1-imidazolyl)-2-oxolanyl]methyl hydrogen phosphate

> <PUBCHEM_IUPAC_NAME_MARKUP>
[(2<I>R</I>,3<I>S</I>,4<I>R</I>,5<I>R</I>)-3,4-dihydroxy-5-imidazol-1-yloxolan-2-yl]methyl hydrogen phosphate

> <PUBCHEM_IUPAC_NAME>
[(2R,3S,4R,5R)-3,4-dihydroxy-5-imidazol-1-yloxolan-2-yl]methyl hydrogen phosphate

> <PUBCHEM_IUPAC_SYSTEMATIC_NAME>
[(2R,3S,4R,5R)-5-imidazol-1-yl-3,4-bis(oxidanyl)oxolan-2-yl]methyl hydrogen phosphate

> <PUBCHEM_IUPAC_TRADITIONAL_NAME>
[(2R,3S,4R,5R)-3,4-dihydroxy-5-imidazol-1-yl-tetrahydrofuran-2-yl]methyl hydrogen phosphate

> <PUBCHEM_IUPAC_INCHI>
InChI=1S/C8H13N2O7P/c11-6-5(3-16-18(13,14)15)17-8(7(6)12)10-2-1-9-4-10/h1-2,4-8,11-12H,3H2,(H2,13,14,15)/p-1/t5-,6-,7-,8-/m1/s1

> <PUBCHEM_IUPAC_INCHIKEY>
YEBULYOZZUNFGU-WCTZXXKLSA-M

> <PUBCHEM_XLOGP3_AA>
-3.3

> <PUBCHEM_EXACT_MASS>
279.03821272

> <PUBCHEM_MOLECULAR_FORMULA>
C8H12N2O7P-

> <PUBCHEM_MOLECULAR_WEIGHT>
279.16

> <PUBCHEM_OPENEYE_CAN_SMILES>
C1=CN(C=N1)C2C(C(C(O2)COP(=O)(O)[O-])O)O

> <PUBCHEM_OPENEYE_ISO_SMILES>
C1=CN(C=N1)[C@H]2[C@@H]([C@@H]([C@H](O2)COP(=O)(O)[O-])O)O

> <PUBCHEM_CACTVS_TPSA>
137

> <PUBCHEM_MONOISOTOPIC_WEIGHT>
279.03821272

> <PUBCHEM_TOTAL_CHARGE>
-1

> <PUBCHEM_HEAVY_ATOM_COUNT>
18

> <PUBCHEM_ATOM_DEF_STEREO_COUNT>
4

> <PUBCHEM_ATOM_UDEF_STEREO_COUNT>
0

> <PUBCHEM_BOND_DEF_STEREO_COUNT>
0

> <PUBCHEM_BOND_UDEF_STEREO_COUNT>
0

> <PUBCHEM_ISOTOPIC_ATOM_COUNT>
0

> <PUBCHEM_COMPONENT_COUNT>
1

> <PUBCHEM_CACTVS_TAUTO_COUNT>
-1

> <PUBCHEM_COORDINATE_TYPE>
1
5
255

> <PUBCHEM_BONDANNOTATIONS>
10  17  8
10  18  8
13  15  5
16  18  8
11  3  6
12  4  6
14  9  5
9  16  8
9  17  8

$$$$
