 
  -OEChem-10192104102D

 18 19  0     0  0  0  0  0  0999 V2000
    4.2690    1.8100    0.0000 O   0  0  0  0  0  0  0  0  0  0  0  0
    8.1648   -1.0560    0.0000 O   0  5  0  0  0  0  0  0  0  0  0  0
    8.1648    0.6760    0.0000 O   0  0  0  0  0  0  0  0  0  0  0  0
    6.0812    0.6147    0.0000 N   1  0  0  0  0  0  0  0  0  0  0  0
    3.4030    0.3100    0.0000 N   0  0  0  0  0  0  0  0  0  0  0  0
    6.0812   -0.9947    0.0000 N   0  0  0  0  0  0  0  0  0  0  0  0
    4.2690   -1.1900    0.0000 N   0  0  0  0  0  0  0  0  0  0  0  0
    7.6648   -0.1900    0.0000 N   0  3  0  0  0  0  0  0  0  0  0  0
    2.5369   -1.1900    0.0000 N   0  0  0  0  0  0  0  0  0  0  0  0
    5.1350    0.3100    0.0000 C   0  0  0  0  0  0  0  0  0  0  0  0
    5.1350   -0.6900    0.0000 C   1  0  0  0  0  0  0  0  0  0  0  0
    4.2690    0.8100    0.0000 C   0  0  0  0  0  0  0  0  0  0  0  0
    6.6648   -0.1900    0.0000 C   1  0  0  0  0  0  0  0  0  0  0  0
    3.4030   -0.6900    0.0000 C   0  0  0  0  0  0  0  0  0  0  0  0
    6.2738    1.2040    0.0000 H   0  0  0  0  0  0  0  0  0  0  0  0
    2.8660    0.6200    0.0000 H   0  0  0  0  0  0  0  0  0  0  0  0
    2.5369   -1.8100    0.0000 H   0  0  0  0  0  0  0  0  0  0  0  0
    2.0000   -0.8800    0.0000 H   0  0  0  0  0  0  0  0  0  0  0  0
  1 12  2  0  0  0  0
  2  8  1  0  0  0  0
  3  8  2  0  0  0  0
  4 10  1  0  0  0  0
  4 13  1  0  0  0  0
  4 15  1  0  0  0  0
  5 12  1  0  0  0  0
  5 14  1  0  0  0  0
  5 16  1  0  0  0  0
  6 11  1  0  0  0  0
  6 13  2  0  0  0  0
  7 11  1  0  0  0  0
  7 14  2  0  0  0  0
  8 13  1  0  0  0  0
  9 14  1  0  0  0  0
  9 17  1  0  0  0  0
  9 18  1  0  0  0  0
 10 11  2  0  0  0  0
 10 12  1  0  0  0  0
M  CHG  2   2  -1   8   1
M  ISO  3   4  15  11  13  13  13
M  END
> <PUBCHEM_COMPOUND_CID>
136234043

> <PUBCHEM_COMPOUND_CANONICALIZED>
1

> <PUBCHEM_CACTVS_COMPLEXITY>
322

> <PUBCHEM_CACTVS_HBOND_ACCEPTOR>
5

> <PUBCHEM_CACTVS_HBOND_DONOR>
3

> <PUBCHEM_CACTVS_ROTATABLE_BOND>
0

> <PUBCHEM_CACTVS_SUBSKEYS>
AAADcYBjsAAAAAAAAAAAAAAAAAAAAWAAAAAgAAAAAAAAAEABgAAADgAUAAAACAgBlgABsBbZ0ACpAQdwdwCAgC2HEKABEQGgVECASAhASCAUAIgIAQJAAGAAAAAAAAAAAAAAAAAAAAAAAAAAAAAAAAAAAA==

> <PUBCHEM_IUPAC_OPENEYE_NAME>
2-amino-8-nitro-1,7-dihydropurin-6-one

> <PUBCHEM_IUPAC_CAS_NAME>
2-amino-8-nitro-1,7-dihydropurin-6-one

> <PUBCHEM_IUPAC_NAME_MARKUP>
2-amino-8-nitro-1,7-dihydropurin-6-one

> <PUBCHEM_IUPAC_NAME>
2-amino-8-nitro-1,7-dihydropurin-6-one

> <PUBCHEM_IUPAC_SYSTEMATIC_NAME>
2-azanyl-8-nitro-1,7-dihydropurin-6-one

> <PUBCHEM_IUPAC_TRADITIONAL_NAME>
2-amino-8-nitro-7H-hypoxanthine

> <PUBCHEM_IUPAC_INCHI>
InChI=1S/C5H4N6O3/c6-4-8-2-1(3(12)10-4)7-5(9-2)11(13)14/h(H4,6,7,8,9,10,12)/i2+1,5+1,7+1

> <PUBCHEM_IUPAC_INCHIKEY>
IYHJRKNFFYAOGE-BSGFKUSMSA-N

> <PUBCHEM_XLOGP3_AA>
-0.9

> <PUBCHEM_EXACT_MASS>
199.03823258

> <PUBCHEM_MOLECULAR_FORMULA>
C5H4N6O3

> <PUBCHEM_MOLECULAR_WEIGHT>
199.10

> <PUBCHEM_OPENEYE_CAN_SMILES>
C12=C(N=C(NC1=O)N)N=C(N2)[N+](=O)[O-]

> <PUBCHEM_OPENEYE_ISO_SMILES>
C12=[13C](N=C(NC1=O)N)N=[13C]([15NH]2)[N+](=O)[O-]

> <PUBCHEM_CACTVS_TPSA>
142

> <PUBCHEM_MONOISOTOPIC_WEIGHT>
199.03823258

> <PUBCHEM_TOTAL_CHARGE>
0

> <PUBCHEM_HEAVY_ATOM_COUNT>
14

> <PUBCHEM_ATOM_DEF_STEREO_COUNT>
0

> <PUBCHEM_ATOM_UDEF_STEREO_COUNT>
0

> <PUBCHEM_BOND_DEF_STEREO_COUNT>
0

> <PUBCHEM_BOND_UDEF_STEREO_COUNT>
0

> <PUBCHEM_ISOTOPIC_ATOM_COUNT>
3

> <PUBCHEM_COMPONENT_COUNT>
1

> <PUBCHEM_CACTVS_TAUTO_COUNT>
-1

> <PUBCHEM_COORDINATE_TYPE>
1
5
255

> <PUBCHEM_BONDANNOTATIONS>
10  11  8
10  12  8
4  10  8
4  13  8
5  12  8
5  14  8
6  11  8
6  13  8
7  11  8
7  14  8

$$$$
