 
  -OEChem-10192104192D

 69 69  0     0  0  0  0  0  0999 V2000
   10.6603    1.5000    0.0000 O   0  0  0  0  0  0  0  0  0  0  0  0
    8.9282   -1.5000    0.0000 O   0  0  0  0  0  0  0  0  0  0  0  0
   12.3923   -1.5000    0.0000 O   0  0  0  0  0  0  0  0  0  0  0  0
    8.9282    3.5000    0.0000 O   0  0  0  0  0  0  0  0  0  0  0  0
    6.3301   -1.0000    0.0000 O   0  0  0  0  0  0  0  0  0  0  0  0
   13.2583   -4.0000    0.0000 O   0  0  0  0  0  0  0  0  0  0  0  0
    9.7942    5.0000    0.0000 O   0  0  0  0  0  0  0  0  0  0  0  0
    5.4641   -2.5000    0.0000 O   0  0  0  0  0  0  0  0  0  0  0  0
   14.9904   -4.0000    0.0000 O   0  0  0  0  0  0  0  0  0  0  0  0
    7.1962    6.5000    0.0000 O   0  0  0  0  0  0  0  0  0  0  0  0
    2.8660   -1.0000    0.0000 O   0  0  0  0  0  0  0  0  0  0  0  0
   14.9904   -7.0000    0.0000 O   0  0  0  0  0  0  0  0  0  0  0  0
    8.9282    6.5000    0.0000 O   0  0  0  0  0  0  0  0  0  0  0  0
    3.7320   -2.5000    0.0000 O   0  0  0  0  0  0  0  0  0  0  0  0
   15.8564   -5.5000    0.0000 O   0  0  0  0  0  0  0  0  0  0  0  0
   10.6603    0.5000    0.0000 C   0  0  0  0  0  0  0  0  0  0  0  0
    9.7942   -1.0000    0.0000 C   0  0  0  0  0  0  0  0  0  0  0  0
   11.5263   -1.0000    0.0000 C   0  0  0  0  0  0  0  0  0  0  0  0
    9.7942    0.0000    0.0000 C   0  0  0  0  0  0  0  0  0  0  0  0
   11.5263    0.0000    0.0000 C   0  0  0  0  0  0  0  0  0  0  0  0
   10.6603   -1.5000    0.0000 C   0  0  0  0  0  0  0  0  0  0  0  0
    9.7942    2.0000    0.0000 C   0  0  0  0  0  0  0  0  0  0  0  0
    8.0622   -1.0000    0.0000 C   0  0  0  0  0  0  0  0  0  0  0  0
   12.3923   -2.5000    0.0000 C   0  0  0  0  0  0  0  0  0  0  0  0
    9.7942    3.0000    0.0000 C   0  0  0  0  0  0  0  0  0  0  0  0
    7.1962   -1.5000    0.0000 C   0  0  0  0  0  0  0  0  0  0  0  0
   13.2583   -3.0000    0.0000 C   0  0  0  0  0  0  0  0  0  0  0  0
    8.9282    4.5000    0.0000 C   0  0  0  0  0  0  0  0  0  0  0  0
    5.4641   -1.5000    0.0000 C   0  0  0  0  0  0  0  0  0  0  0  0
   14.1244   -4.5000    0.0000 C   0  0  0  0  0  0  0  0  0  0  0  0
    8.0622    5.0000    0.0000 C   0  0  0  0  0  0  0  0  0  0  0  0
    4.5981   -1.0000    0.0000 C   0  0  0  0  0  0  0  0  0  0  0  0
   14.1244   -5.5000    0.0000 C   0  0  0  0  0  0  0  0  0  0  0  0
    8.0622    6.0000    0.0000 C   0  0  0  0  0  0  0  0  0  0  0  0
    3.7320   -1.5000    0.0000 C   0  0  0  0  0  0  0  0  0  0  0  0
   14.9904   -6.0000    0.0000 C   0  0  0  0  0  0  0  0  0  0  0  0
    7.1962    7.5000    0.0000 C   0  0  0  0  0  0  0  0  0  0  0  0
    2.0000   -1.5000    0.0000 C   0  0  0  0  0  0  0  0  0  0  0  0
   15.8564   -7.5000    0.0000 C   0  0  0  0  0  0  0  0  0  0  0  0
    9.2573    0.3100    0.0000 H   0  0  0  0  0  0  0  0  0  0  0  0
   12.0632    0.3100    0.0000 H   0  0  0  0  0  0  0  0  0  0  0  0
   10.6603   -2.1200    0.0000 H   0  0  0  0  0  0  0  0  0  0  0  0
    9.1836    2.1077    0.0000 H   0  0  0  0  0  0  0  0  0  0  0  0
    9.5822    1.4174    0.0000 H   0  0  0  0  0  0  0  0  0  0  0  0
    8.4607   -0.5251    0.0000 H   0  0  0  0  0  0  0  0  0  0  0  0
    7.6636   -0.5251    0.0000 H   0  0  0  0  0  0  0  0  0  0  0  0
   11.7817   -2.3923    0.0000 H   0  0  0  0  0  0  0  0  0  0  0  0
   12.1803   -3.0826    0.0000 H   0  0  0  0  0  0  0  0  0  0  0  0
   10.4048    2.8923    0.0000 H   0  0  0  0  0  0  0  0  0  0  0  0
   10.0063    3.5826    0.0000 H   0  0  0  0  0  0  0  0  0  0  0  0
    6.7976   -1.9750    0.0000 H   0  0  0  0  0  0  0  0  0  0  0  0
    7.5947   -1.9750    0.0000 H   0  0  0  0  0  0  0  0  0  0  0  0
   13.8689   -3.1077    0.0000 H   0  0  0  0  0  0  0  0  0  0  0  0
   13.4704   -2.4174    0.0000 H   0  0  0  0  0  0  0  0  0  0  0  0
    7.4516    5.1077    0.0000 H   0  0  0  0  0  0  0  0  0  0  0  0
    7.8501    4.4174    0.0000 H   0  0  0  0  0  0  0  0  0  0  0  0
    4.9966   -0.5251    0.0000 H   0  0  0  0  0  0  0  0  0  0  0  0
    4.1996   -0.5251    0.0000 H   0  0  0  0  0  0  0  0  0  0  0  0
   13.5138   -5.3923    0.0000 H   0  0  0  0  0  0  0  0  0  0  0  0
   13.9123   -6.0826    0.0000 H   0  0  0  0  0  0  0  0  0  0  0  0
    7.8162    7.5000    0.0000 H   0  0  0  0  0  0  0  0  0  0  0  0
    7.1962    8.1200    0.0000 H   0  0  0  0  0  0  0  0  0  0  0  0
    6.5762    7.5000    0.0000 H   0  0  0  0  0  0  0  0  0  0  0  0
    1.6900   -0.9631    0.0000 H   0  0  0  0  0  0  0  0  0  0  0  0
    1.4631   -1.8100    0.0000 H   0  0  0  0  0  0  0  0  0  0  0  0
    2.3100   -2.0369    0.0000 H   0  0  0  0  0  0  0  0  0  0  0  0
   15.5464   -8.0369    0.0000 H   0  0  0  0  0  0  0  0  0  0  0  0
   16.3933   -7.8100    0.0000 H   0  0  0  0  0  0  0  0  0  0  0  0
   16.1664   -6.9631    0.0000 H   0  0  0  0  0  0  0  0  0  0  0  0
  1 16  1  0  0  0  0
  1 22  1  0  0  0  0
  2 17  1  0  0  0  0
  2 23  1  0  0  0  0
  3 18  1  0  0  0  0
  3 24  1  0  0  0  0
  4 25  1  0  0  0  0
  4 28  1  0  0  0  0
  5 26  1  0  0  0  0
  5 29  1  0  0  0  0
  6 27  1  0  0  0  0
  6 30  1  0  0  0  0
  7 28  2  0  0  0  0
  8 29  2  0  0  0  0
  9 30  2  0  0  0  0
 10 34  1  0  0  0  0
 10 37  1  0  0  0  0
 11 35  1  0  0  0  0
 11 38  1  0  0  0  0
 12 36  1  0  0  0  0
 12 39  1  0  0  0  0
 13 34  2  0  0  0  0
 14 35  2  0  0  0  0
 15 36  2  0  0  0  0
 16 19  2  0  0  0  0
 16 20  1  0  0  0  0
 17 19  1  0  0  0  0
 17 21  2  0  0  0  0
 18 20  2  0  0  0  0
 18 21  1  0  0  0  0
 19 40  1  0  0  0  0
 20 41  1  0  0  0  0
 21 42  1  0  0  0  0
 22 25  1  0  0  0  0
 22 43  1  0  0  0  0
 22 44  1  0  0  0  0
 23 26  1  0  0  0  0
 23 45  1  0  0  0  0
 23 46  1  0  0  0  0
 24 27  1  0  0  0  0
 24 47  1  0  0  0  0
 24 48  1  0  0  0  0
 25 49  1  0  0  0  0
 25 50  1  0  0  0  0
 26 51  1  0  0  0  0
 26 52  1  0  0  0  0
 27 53  1  0  0  0  0
 27 54  1  0  0  0  0
 28 31  1  0  0  0  0
 29 32  1  0  0  0  0
 30 33  1  0  0  0  0
 31 34  1  0  0  0  0
 31 55  1  0  0  0  0
 31 56  1  0  0  0  0
 32 35  1  0  0  0  0
 32 57  1  0  0  0  0
 32 58  1  0  0  0  0
 33 36  1  0  0  0  0
 33 59  1  0  0  0  0
 33 60  1  0  0  0  0
 37 61  1  0  0  0  0
 37 62  1  0  0  0  0
 37 63  1  0  0  0  0
 38 64  1  0  0  0  0
 38 65  1  0  0  0  0
 38 66  1  0  0  0  0
 39 67  1  0  0  0  0
 39 68  1  0  0  0  0
 39 69  1  0  0  0  0
M  END
> <PUBCHEM_COMPOUND_CID>
101487489

> <PUBCHEM_COMPOUND_CANONICALIZED>
1

> <PUBCHEM_CACTVS_COMPLEXITY>
695

> <PUBCHEM_CACTVS_HBOND_ACCEPTOR>
15

> <PUBCHEM_CACTVS_HBOND_DONOR>
0

> <PUBCHEM_CACTVS_ROTATABLE_BOND>
24

> <PUBCHEM_CACTVS_SUBSKEYS>
AAADceB4PAAAAAAAAAAAAAAAAAAAAAAAAAAwAAAAAAAAAAABAAAAGgAAAAAACASgkAIyDoAABACIACDSCAACCAAgIAAAiAEGCIgNJyaMMRqCOCCl4BUKqAeAYAwAAAAACAAAAAAAAAAQAAAAAAAAAAAAAA==

> <PUBCHEM_IUPAC_OPENEYE_NAME>
O3-[2-[3,5-bis[2-(3-methoxy-3-oxo-propanoyl)oxyethoxy]phenoxy]ethyl] O1-methyl propanedioate

> <PUBCHEM_IUPAC_CAS_NAME>
propanedioic acid O3-[2-[3,5-bis[2-(3-methoxy-1,3-dioxopropoxy)ethoxy]phenoxy]ethyl] ester O1-methyl ester

> <PUBCHEM_IUPAC_NAME_MARKUP>
3-<I>O</I>-[2-[3,5-bis[2-(3-methoxy-3-oxopropanoyl)oxyethoxy]phenoxy]ethyl] 1-<I>O</I>-methyl propanedioate

> <PUBCHEM_IUPAC_NAME>
3-O-[2-[3,5-bis[2-(3-methoxy-3-oxopropanoyl)oxyethoxy]phenoxy]ethyl] 1-O-methyl propanedioate

> <PUBCHEM_IUPAC_SYSTEMATIC_NAME>
O3-[2-[3,5-bis[2-(3-methoxy-3-oxidanylidene-propanoyl)oxyethoxy]phenoxy]ethyl] O1-methyl propanedioate

> <PUBCHEM_IUPAC_TRADITIONAL_NAME>
malonic acid O3-[2-[3,5-bis[2-(3-keto-3-methoxy-propanoyl)oxyethoxy]phenoxy]ethyl] ester O1-methyl ester

> <PUBCHEM_IUPAC_INCHI>
InChI=1S/C24H30O15/c1-31-19(25)13-22(28)37-7-4-34-16-10-17(35-5-8-38-23(29)14-20(26)32-2)12-18(11-16)36-6-9-39-24(30)15-21(27)33-3/h10-12H,4-9,13-15H2,1-3H3

> <PUBCHEM_IUPAC_INCHIKEY>
HGFUSFVSSPYUQP-UHFFFAOYSA-N

> <PUBCHEM_XLOGP3_AA>
1.6

> <PUBCHEM_EXACT_MASS>
558.15847025

> <PUBCHEM_MOLECULAR_FORMULA>
C24H30O15

> <PUBCHEM_MOLECULAR_WEIGHT>
558.5

> <PUBCHEM_OPENEYE_CAN_SMILES>
COC(=O)CC(=O)OCCOC1=CC(=CC(=C1)OCCOC(=O)CC(=O)OC)OCCOC(=O)CC(=O)OC

> <PUBCHEM_OPENEYE_ISO_SMILES>
COC(=O)CC(=O)OCCOC1=CC(=CC(=C1)OCCOC(=O)CC(=O)OC)OCCOC(=O)CC(=O)OC

> <PUBCHEM_CACTVS_TPSA>
186

> <PUBCHEM_MONOISOTOPIC_WEIGHT>
558.15847025

> <PUBCHEM_TOTAL_CHARGE>
0

> <PUBCHEM_HEAVY_ATOM_COUNT>
39

> <PUBCHEM_ATOM_DEF_STEREO_COUNT>
0

> <PUBCHEM_ATOM_UDEF_STEREO_COUNT>
0

> <PUBCHEM_BOND_DEF_STEREO_COUNT>
0

> <PUBCHEM_BOND_UDEF_STEREO_COUNT>
0

> <PUBCHEM_ISOTOPIC_ATOM_COUNT>
0

> <PUBCHEM_COMPONENT_COUNT>
1

> <PUBCHEM_CACTVS_TAUTO_COUNT>
-1

> <PUBCHEM_COORDINATE_TYPE>
1
5
255

> <PUBCHEM_BONDANNOTATIONS>
16  19  8
16  20  8
17  19  8
17  21  8
18  20  8
18  21  8

$$$$
