 
  -OEChem-10192103512D

 65 65  0     1  0  0  0  0  0999 V2000
    4.2690   -2.5950    0.0000 O   0  0  0  0  0  0  0  0  0  0  0  0
    6.0010   -2.5950    0.0000 O   0  0  0  0  0  0  0  0  0  0  0  0
    4.2690   -5.5950    0.0000 O   0  0  0  0  0  0  0  0  0  0  0  0
    2.5369   -4.5950    0.0000 O   0  0  0  0  0  0  0  0  0  0  0  0
    2.5369   -1.5950    0.0000 O   0  0  0  0  0  0  0  0  0  0  0  0
    7.7331   -4.5950    0.0000 O   0  0  0  0  0  0  0  0  0  0  0  0
    6.8671   -3.0950    0.0000 O   0  0  0  0  0  0  0  0  0  0  0  0
   10.3312    4.9050    0.0000 O   0  0  0  0  0  0  0  0  0  0  0  0
    8.5991    4.9050    0.0000 O   0  0  0  0  0  0  0  0  0  0  0  0
    6.0010   -4.5950    0.0000 N   0  0  0  0  0  0  0  0  0  0  0  0
    5.1350   -4.0950    0.0000 C   0  0  3  0  0  0  0  0  0  0  0  0
    4.2690   -4.5950    0.0000 C   0  0  3  0  0  0  0  0  0  0  0  0
    3.4030   -4.0950    0.0000 C   0  0  2  0  0  0  0  0  0  0  0  0
    3.4030   -3.0950    0.0000 C   0  0  3  0  0  0  0  0  0  0  0  0
    5.1350   -3.0950    0.0000 C   0  0  1  0  0  0  0  0  0  0  0  0
    2.5369   -2.5950    0.0000 C   0  0  0  0  0  0  0  0  0  0  0  0
    6.0010   -1.5950    0.0000 C   0  0  0  0  0  0  0  0  0  0  0  0
    6.8671   -1.0950    0.0000 C   0  0  0  0  0  0  0  0  0  0  0  0
    6.8671   -0.0950    0.0000 C   0  0  0  0  0  0  0  0  0  0  0  0
    7.7331    0.4050    0.0000 C   0  0  0  0  0  0  0  0  0  0  0  0
    6.8671   -4.0950    0.0000 C   0  0  0  0  0  0  0  0  0  0  0  0
    7.7331    1.4050    0.0000 C   0  0  0  0  0  0  0  0  0  0  0  0
    8.5991    1.9050    0.0000 C   0  0  0  0  0  0  0  0  0  0  0  0
    8.5991    2.9050    0.0000 C   0  0  0  0  0  0  0  0  0  0  0  0
    9.4651    3.4050    0.0000 C   0  0  0  0  0  0  0  0  0  0  0  0
    8.5991   -4.0950    0.0000 C   0  0  0  0  0  0  0  0  0  0  0  0
    9.4651    4.4050    0.0000 C   0  0  0  0  0  0  0  0  0  0  0  0
    9.4651   -4.5950    0.0000 C   0  0  0  0  0  0  0  0  0  0  0  0
   10.3312   -4.0950    0.0000 C   0  0  0  0  0  0  0  0  0  0  0  0
   10.3312    5.9050    0.0000 C   0  0  0  0  0  0  0  0  0  0  0  0
    5.6720   -3.7850    0.0000 H   0  0  0  0  0  0  0  0  0  0  0  0
    4.8059   -4.9050    0.0000 H   0  0  0  0  0  0  0  0  0  0  0  0
    3.4030   -4.7150    0.0000 H   0  0  0  0  0  0  0  0  0  0  0  0
    3.4030   -2.4750    0.0000 H   0  0  0  0  0  0  0  0  0  0  0  0
    5.1350   -2.4750    0.0000 H   0  0  0  0  0  0  0  0  0  0  0  0
    1.9264   -2.4873    0.0000 H   0  0  0  0  0  0  0  0  0  0  0  0
    2.3249   -3.1776    0.0000 H   0  0  0  0  0  0  0  0  0  0  0  0
    6.0010   -5.2150    0.0000 H   0  0  0  0  0  0  0  0  0  0  0  0
    5.7890   -1.0124    0.0000 H   0  0  0  0  0  0  0  0  0  0  0  0
    5.3905   -1.7027    0.0000 H   0  0  0  0  0  0  0  0  0  0  0  0
    3.7320   -5.9050    0.0000 H   0  0  0  0  0  0  0  0  0  0  0  0
    2.0000   -4.2850    0.0000 H   0  0  0  0  0  0  0  0  0  0  0  0
    7.0791   -1.6776    0.0000 H   0  0  0  0  0  0  0  0  0  0  0  0
    7.4776   -0.9873    0.0000 H   0  0  0  0  0  0  0  0  0  0  0  0
    6.6550    0.4876    0.0000 H   0  0  0  0  0  0  0  0  0  0  0  0
    6.2565   -0.2027    0.0000 H   0  0  0  0  0  0  0  0  0  0  0  0
    7.9451   -0.1776    0.0000 H   0  0  0  0  0  0  0  0  0  0  0  0
    8.3437    0.5127    0.0000 H   0  0  0  0  0  0  0  0  0  0  0  0
    7.5210    1.9876    0.0000 H   0  0  0  0  0  0  0  0  0  0  0  0
    7.1225    1.2973    0.0000 H   0  0  0  0  0  0  0  0  0  0  0  0
    2.0000   -1.2850    0.0000 H   0  0  0  0  0  0  0  0  0  0  0  0
    8.8112    1.3224    0.0000 H   0  0  0  0  0  0  0  0  0  0  0  0
    9.2097    2.0127    0.0000 H   0  0  0  0  0  0  0  0  0  0  0  0
    8.3871    3.4876    0.0000 H   0  0  0  0  0  0  0  0  0  0  0  0
    7.9885    2.7973    0.0000 H   0  0  0  0  0  0  0  0  0  0  0  0
    9.6772    2.8224    0.0000 H   0  0  0  0  0  0  0  0  0  0  0  0
   10.0757    3.5127    0.0000 H   0  0  0  0  0  0  0  0  0  0  0  0
    8.9976   -3.6200    0.0000 H   0  0  0  0  0  0  0  0  0  0  0  0
    8.2006   -3.6200    0.0000 H   0  0  0  0  0  0  0  0  0  0  0  0
    9.4651   -5.2150    0.0000 H   0  0  0  0  0  0  0  0  0  0  0  0
   10.8681   -4.4050    0.0000 H   0  0  0  0  0  0  0  0  0  0  0  0
   10.3312   -3.4750    0.0000 H   0  0  0  0  0  0  0  0  0  0  0  0
   10.9512    5.9050    0.0000 H   0  0  0  0  0  0  0  0  0  0  0  0
   10.3312    6.5250    0.0000 H   0  0  0  0  0  0  0  0  0  0  0  0
    9.7112    5.9050    0.0000 H   0  0  0  0  0  0  0  0  0  0  0  0
  1 14  1  0  0  0  0
  1 15  1  0  0  0  0
 15  2  1  1  0  0  0
  2 17  1  0  0  0  0
  3 12  1  0  0  0  0
  3 41  1  0  0  0  0
 13  4  1  1  0  0  0
  4 42  1  0  0  0  0
  5 16  1  0  0  0  0
  5 51  1  0  0  0  0
  6 21  1  0  0  0  0
  6 26  1  0  0  0  0
  7 21  2  0  0  0  0
  8 27  1  0  0  0  0
  8 30  1  0  0  0  0
  9 27  2  0  0  0  0
 10 11  1  0  0  0  0
 10 21  1  0  0  0  0
 10 38  1  0  0  0  0
 11 12  1  0  0  0  0
 11 15  1  0  0  0  0
 11 31  1  0  0  0  0
 12 13  1  0  0  0  0
 12 32  1  0  0  0  0
 13 14  1  0  0  0  0
 13 33  1  0  0  0  0
 14 16  1  0  0  0  0
 14 34  1  0  0  0  0
 15 35  1  0  0  0  0
 16 36  1  0  0  0  0
 16 37  1  0  0  0  0
 17 18  1  0  0  0  0
 17 39  1  0  0  0  0
 17 40  1  0  0  0  0
 18 19  1  0  0  0  0
 18 43  1  0  0  0  0
 18 44  1  0  0  0  0
 19 20  1  0  0  0  0
 19 45  1  0  0  0  0
 19 46  1  0  0  0  0
 20 22  1  0  0  0  0
 20 47  1  0  0  0  0
 20 48  1  0  0  0  0
 22 23  1  0  0  0  0
 22 49  1  0  0  0  0
 22 50  1  0  0  0  0
 23 24  1  0  0  0  0
 23 52  1  0  0  0  0
 23 53  1  0  0  0  0
 24 25  1  0  0  0  0
 24 54  1  0  0  0  0
 24 55  1  0  0  0  0
 25 27  1  0  0  0  0
 25 56  1  0  0  0  0
 25 57  1  0  0  0  0
 26 28  1  0  0  0  0
 26 58  1  0  0  0  0
 26 59  1  0  0  0  0
 28 29  2  0  0  0  0
 28 60  1  0  0  0  0
 29 61  1  0  0  0  0
 29 62  1  0  0  0  0
 30 63  1  0  0  0  0
 30 64  1  0  0  0  0
 30 65  1  0  0  0  0
M  END
> <PUBCHEM_COMPOUND_CID>
59928169

> <PUBCHEM_COMPOUND_CANONICALIZED>
1

> <PUBCHEM_CACTVS_COMPLEXITY>
517

> <PUBCHEM_CACTVS_HBOND_ACCEPTOR>
9

> <PUBCHEM_CACTVS_HBOND_DONOR>
4

> <PUBCHEM_CACTVS_ROTATABLE_BOND>
16

> <PUBCHEM_CACTVS_SUBSKEYS>
AAADcfB6PAAAAAAAAAAAAAAAAAAAAAAAAAAkAAAAAAAAAAAAAAAAHgAQCAAACDzxgAcCCALABgCIACDSGAAAAAAAAAAIAIEIAAETFBIAoQAvQAAHFgAXIAH4+K+AAAAAAAAAAAAAAAAAAAAAAAAAAAAAAA==

> <PUBCHEM_IUPAC_OPENEYE_NAME>
methyl 9-[(2R,5R)-3-(allyloxycarbonylamino)-4,5-dihydroxy-6-(hydroxymethyl)tetrahydropyran-2-yl]oxynonanoate

> <PUBCHEM_IUPAC_CAS_NAME>
9-[[(2R,5R)-4,5-dihydroxy-6-(hydroxymethyl)-3-[[oxo(prop-2-enoxy)methyl]amino]-2-oxanyl]oxy]nonanoic acid methyl ester

> <PUBCHEM_IUPAC_NAME_MARKUP>
methyl 9-[(2<I>R</I>,5<I>R</I>)-4,5-dihydroxy-6-(hydroxymethyl)-3-(prop-2-enoxycarbonylamino)oxan-2-yl]oxynonanoate

> <PUBCHEM_IUPAC_NAME>
methyl 9-[(2R,5R)-4,5-dihydroxy-6-(hydroxymethyl)-3-(prop-2-enoxycarbonylamino)oxan-2-yl]oxynonanoate

> <PUBCHEM_IUPAC_SYSTEMATIC_NAME>
methyl 9-[(2R,5R)-6-(hydroxymethyl)-4,5-bis(oxidanyl)-3-(prop-2-enoxycarbonylamino)oxan-2-yl]oxynonanoate

> <PUBCHEM_IUPAC_TRADITIONAL_NAME>
9-[(2R,5R)-3-(allyloxycarbonylamino)-4,5-dihydroxy-6-methylol-tetrahydropyran-2-yl]oxypelargonic acid methyl ester

> <PUBCHEM_IUPAC_INCHI>
InChI=1S/C20H35NO9/c1-3-11-29-20(26)21-16-18(25)17(24)14(13-22)30-19(16)28-12-9-7-5-4-6-8-10-15(23)27-2/h3,14,16-19,22,24-25H,1,4-13H2,2H3,(H,21,26)/t14?,16?,17-,18?,19+/m0/s1

> <PUBCHEM_IUPAC_INCHIKEY>
BJVMBQLEZJGYBD-VNNFQZRDSA-N

> <PUBCHEM_XLOGP3_AA>
1.5

> <PUBCHEM_EXACT_MASS>
433.23118169

> <PUBCHEM_MOLECULAR_FORMULA>
C20H35NO9

> <PUBCHEM_MOLECULAR_WEIGHT>
433.5

> <PUBCHEM_OPENEYE_CAN_SMILES>
COC(=O)CCCCCCCCOC1C(C(C(C(O1)CO)O)O)NC(=O)OCC=C

> <PUBCHEM_OPENEYE_ISO_SMILES>
COC(=O)CCCCCCCCO[C@H]1C(C([C@H](C(O1)CO)O)O)NC(=O)OCC=C

> <PUBCHEM_CACTVS_TPSA>
144

> <PUBCHEM_MONOISOTOPIC_WEIGHT>
433.23118169

> <PUBCHEM_TOTAL_CHARGE>
0

> <PUBCHEM_HEAVY_ATOM_COUNT>
30

> <PUBCHEM_ATOM_DEF_STEREO_COUNT>
2

> <PUBCHEM_ATOM_UDEF_STEREO_COUNT>
3

> <PUBCHEM_BOND_DEF_STEREO_COUNT>
0

> <PUBCHEM_BOND_UDEF_STEREO_COUNT>
0

> <PUBCHEM_ISOTOPIC_ATOM_COUNT>
0

> <PUBCHEM_COMPONENT_COUNT>
1

> <PUBCHEM_CACTVS_TAUTO_COUNT>
-1

> <PUBCHEM_COORDINATE_TYPE>
1
5
255

> <PUBCHEM_BONDANNOTATIONS>
11  10  3
14  16  3
15  2  5
12  3  3
13  4  5

$$$$
