 
  -OEChem-10192103362D

 84 90  0     1  0  0  0  0  0999 V2000
   10.1633   -1.9915    0.0000 S   0  0  0  0  0  0  0  0  0  0  0  0
    5.3442   -3.7300    0.0000 S   0  0  0  0  0  0  0  0  0  0  0  0
   10.5700   -2.9051    0.0000 O   0  0  0  0  0  0  0  0  0  0  0  0
    9.7566   -1.0780    0.0000 O   0  0  0  0  0  0  0  0  0  0  0  0
    4.7956   -2.8939    0.0000 O   0  0  0  0  0  0  0  0  0  0  0  0
    5.8929   -4.5660    0.0000 O   0  0  0  0  0  0  0  0  0  0  0  0
    7.7422    2.4164    0.0000 O   0  0  0  0  0  0  0  0  0  0  0  0
    9.2498   -2.3983    0.0000 N   0  0  0  0  0  0  0  0  0  0  0  0
    6.1803   -3.1813    0.0000 N   0  0  3  0  0  0  0  0  0  0  0  0
    7.7039   -1.5834    0.0000 C   0  0  3  0  0  0  0  0  0  0  0  0
    8.2498   -2.3983    0.0000 C   0  0  0  0  0  0  0  0  0  0  0  0
    7.9407   -3.3493    0.0000 C   0  0  0  0  0  0  0  0  0  0  0  0
    6.7268   -1.4994    0.0000 C   0  0  0  0  0  0  0  0  0  0  0  0
    7.0202   -3.6878    0.0000 C   0  0  0  0  0  0  0  0  0  0  0  0
    6.0499   -2.2092    0.0000 C   0  0  0  0  0  0  0  0  0  0  0  0
    8.7498   -3.9371    0.0000 C   0  0  0  0  0  0  0  0  0  0  0  0
    9.5588   -3.3493    0.0000 C   0  0  0  0  0  0  0  0  0  0  0  0
    7.7135   -0.5834    0.0000 C   0  0  0  0  0  0  0  0  0  0  0  0
    8.8427   -4.9746    0.0000 C   0  0  0  0  0  0  0  0  0  0  0  0
   10.5168   -3.7583    0.0000 C   0  0  0  0  0  0  0  0  0  0  0  0
    6.8523   -0.0752    0.0000 C   0  0  0  0  0  0  0  0  0  0  0  0
    8.5843   -0.0917    0.0000 C   0  0  0  0  0  0  0  0  0  0  0  0
   11.0768   -1.5848    0.0000 C   0  0  0  0  0  0  0  0  0  0  0  0
    4.5082   -4.2786    0.0000 C   0  0  0  0  0  0  0  0  0  0  0  0
    9.7909   -5.4056    0.0000 C   0  0  0  0  0  0  0  0  0  0  0  0
   10.6336   -4.7933    0.0000 C   0  0  0  0  0  0  0  0  0  0  0  0
    6.8619    0.9248    0.0000 C   0  0  0  0  0  0  0  0  0  0  0  0
    8.5939    0.9082    0.0000 C   0  0  0  0  0  0  0  0  0  0  0  0
    7.7327    1.4165    0.0000 C   0  0  0  0  0  0  0  0  0  0  0  0
   11.8859   -2.1726    0.0000 C   0  0  0  0  0  0  0  0  0  0  0  0
   11.1814   -0.5903    0.0000 C   0  0  0  0  0  0  0  0  0  0  0  0
    3.6150   -3.8289    0.0000 C   0  0  0  0  0  0  0  0  0  0  0  0
    4.5653   -5.2770    0.0000 C   0  0  0  0  0  0  0  0  0  0  0  0
   12.7994   -1.7658    0.0000 C   0  0  0  0  0  0  0  0  0  0  0  0
   12.0949   -0.1835    0.0000 C   0  0  0  0  0  0  0  0  0  0  0  0
    2.7789   -4.3776    0.0000 C   0  0  0  0  0  0  0  0  0  0  0  0
    3.7292   -5.8256    0.0000 C   0  0  0  0  0  0  0  0  0  0  0  0
   12.9039   -0.7713    0.0000 C   0  0  0  0  0  0  0  0  0  0  0  0
    2.8360   -5.3759    0.0000 C   0  0  0  0  0  0  0  0  0  0  0  0
   13.8175   -0.3646    0.0000 C   0  0  0  0  0  0  0  0  0  0  0  0
    2.0000   -5.9246    0.0000 C   0  0  0  0  0  0  0  0  0  0  0  0
    6.8811    2.9247    0.0000 C   0  0  0  0  0  0  0  0  0  0  0  0
    6.8906    3.9247    0.0000 C   0  0  0  0  0  0  0  0  0  0  0  0
    6.0294    4.4329    0.0000 C   0  0  0  0  0  0  0  0  0  0  0  0
    7.7614    4.4163    0.0000 C   0  0  0  0  0  0  0  0  0  0  0  0
    6.0390    5.4329    0.0000 C   0  0  0  0  0  0  0  0  0  0  0  0
    7.7710    5.4163    0.0000 C   0  0  0  0  0  0  0  0  0  0  0  0
    6.9098    5.9246    0.0000 C   0  0  0  0  0  0  0  0  0  0  0  0
    7.2869   -1.1246    0.0000 H   0  0  0  0  0  0  0  0  0  0  0  0
    6.9165   -0.9092    0.0000 H   0  0  0  0  0  0  0  0  0  0  0  0
    6.1938   -1.1826    0.0000 H   0  0  0  0  0  0  0  0  0  0  0  0
    6.5895   -4.1338    0.0000 H   0  0  0  0  0  0  0  0  0  0  0  0
    7.3587   -4.2072    0.0000 H   0  0  0  0  0  0  0  0  0  0  0  0
    5.7081   -1.6920    0.0000 H   0  0  0  0  0  0  0  0  0  0  0  0
    5.4694   -2.4268    0.0000 H   0  0  0  0  0  0  0  0  0  0  0  0
    8.3369   -5.3332    0.0000 H   0  0  0  0  0  0  0  0  0  0  0  0
   11.0141   -3.3881    0.0000 H   0  0  0  0  0  0  0  0  0  0  0  0
    6.3124   -0.3800    0.0000 H   0  0  0  0  0  0  0  0  0  0  0  0
    9.1182   -0.4069    0.0000 H   0  0  0  0  0  0  0  0  0  0  0  0
    9.8534   -6.0224    0.0000 H   0  0  0  0  0  0  0  0  0  0  0  0
   11.2010   -5.0433    0.0000 H   0  0  0  0  0  0  0  0  0  0  0  0
    6.3280    1.2399    0.0000 H   0  0  0  0  0  0  0  0  0  0  0  0
    9.1337    1.2130    0.0000 H   0  0  0  0  0  0  0  0  0  0  0  0
   11.8211   -2.7892    0.0000 H   0  0  0  0  0  0  0  0  0  0  0  0
   10.6798   -0.2258    0.0000 H   0  0  0  0  0  0  0  0  0  0  0  0
    3.5796   -3.2099    0.0000 H   0  0  0  0  0  0  0  0  0  0  0  0
    5.1190   -5.5558    0.0000 H   0  0  0  0  0  0  0  0  0  0  0  0
   13.3010   -2.1303    0.0000 H   0  0  0  0  0  0  0  0  0  0  0  0
   12.1597    0.4331    0.0000 H   0  0  0  0  0  0  0  0  0  0  0  0
    2.2252   -4.0987    0.0000 H   0  0  0  0  0  0  0  0  0  0  0  0
    3.7646   -6.4446    0.0000 H   0  0  0  0  0  0  0  0  0  0  0  0
   14.0697   -0.9310    0.0000 H   0  0  0  0  0  0  0  0  0  0  0  0
   14.3839   -0.1124    0.0000 H   0  0  0  0  0  0  0  0  0  0  0  0
   13.5653    0.2018    0.0000 H   0  0  0  0  0  0  0  0  0  0  0  0
    1.6598   -5.4062    0.0000 H   0  0  0  0  0  0  0  0  0  0  0  0
    1.4816   -6.2647    0.0000 H   0  0  0  0  0  0  0  0  0  0  0  0
    2.3402   -6.4429    0.0000 H   0  0  0  0  0  0  0  0  0  0  0  0
    6.2715    3.0382    0.0000 H   0  0  0  0  0  0  0  0  0  0  0  0
    6.6634    2.3442    0.0000 H   0  0  0  0  0  0  0  0  0  0  0  0
    5.4896    4.1281    0.0000 H   0  0  0  0  0  0  0  0  0  0  0  0
    8.2953    4.1012    0.0000 H   0  0  0  0  0  0  0  0  0  0  0  0
    5.5051    5.7480    0.0000 H   0  0  0  0  0  0  0  0  0  0  0  0
    8.3109    5.7211    0.0000 H   0  0  0  0  0  0  0  0  0  0  0  0
    6.9157    6.5445    0.0000 H   0  0  0  0  0  0  0  0  0  0  0  0
  1  3  2  0  0  0  0
  1  4  2  0  0  0  0
  1  8  1  0  0  0  0
  1 23  1  0  0  0  0
  2  5  2  0  0  0  0
  2  6  2  0  0  0  0
  2  9  1  0  0  0  0
  2 24  1  0  0  0  0
  7 29  1  0  0  0  0
  7 42  1  0  0  0  0
  8 11  1  0  0  0  0
  8 17  1  0  0  0  0
  9 14  1  0  0  0  0
  9 15  1  0  0  0  0
 10 11  1  0  0  0  0
 10 13  1  0  0  0  0
 10 18  1  0  0  0  0
 10 49  1  0  0  0  0
 11 12  2  0  0  0  0
 12 14  1  0  0  0  0
 12 16  1  0  0  0  0
 13 15  1  0  0  0  0
 13 50  1  0  0  0  0
 13 51  1  0  0  0  0
 14 52  1  0  0  0  0
 14 53  1  0  0  0  0
 15 54  1  0  0  0  0
 15 55  1  0  0  0  0
 16 17  1  0  0  0  0
 16 19  2  0  0  0  0
 17 20  2  0  0  0  0
 18 21  2  0  0  0  0
 18 22  1  0  0  0  0
 19 25  1  0  0  0  0
 19 56  1  0  0  0  0
 20 26  1  0  0  0  0
 20 57  1  0  0  0  0
 21 27  1  0  0  0  0
 21 58  1  0  0  0  0
 22 28  2  0  0  0  0
 22 59  1  0  0  0  0
 23 30  2  0  0  0  0
 23 31  1  0  0  0  0
 24 32  2  0  0  0  0
 24 33  1  0  0  0  0
 25 26  2  0  0  0  0
 25 60  1  0  0  0  0
 26 61  1  0  0  0  0
 27 29  2  0  0  0  0
 27 62  1  0  0  0  0
 28 29  1  0  0  0  0
 28 63  1  0  0  0  0
 30 34  1  0  0  0  0
 30 64  1  0  0  0  0
 31 35  2  0  0  0  0
 31 65  1  0  0  0  0
 32 36  1  0  0  0  0
 32 66  1  0  0  0  0
 33 37  2  0  0  0  0
 33 67  1  0  0  0  0
 34 38  2  0  0  0  0
 34 68  1  0  0  0  0
 35 38  1  0  0  0  0
 35 69  1  0  0  0  0
 36 39  2  0  0  0  0
 36 70  1  0  0  0  0
 37 39  1  0  0  0  0
 37 71  1  0  0  0  0
 38 40  1  0  0  0  0
 39 41  1  0  0  0  0
 40 72  1  0  0  0  0
 40 73  1  0  0  0  0
 40 74  1  0  0  0  0
 41 75  1  0  0  0  0
 41 76  1  0  0  0  0
 41 77  1  0  0  0  0
 42 43  1  0  0  0  0
 42 78  1  0  0  0  0
 42 79  1  0  0  0  0
 43 44  2  0  0  0  0
 43 45  1  0  0  0  0
 44 46  1  0  0  0  0
 44 80  1  0  0  0  0
 45 47  2  0  0  0  0
 45 81  1  0  0  0  0
 46 48  2  0  0  0  0
 46 82  1  0  0  0  0
 47 48  1  0  0  0  0
 47 83  1  0  0  0  0
 48 84  1  0  0  0  0
M  END
> <PUBCHEM_COMPOUND_CID>
102134762

> <PUBCHEM_COMPOUND_CANONICALIZED>
1

> <PUBCHEM_CACTVS_COMPLEXITY>
1250

> <PUBCHEM_CACTVS_HBOND_ACCEPTOR>
6

> <PUBCHEM_CACTVS_HBOND_DONOR>
0

> <PUBCHEM_CACTVS_ROTATABLE_BOND>
8

> <PUBCHEM_CACTVS_SUBSKEYS>
AAADcfB/OABgAAAAAAAAAAAAAAAAAWAAAAAwYMGDBYAAAFix9AAAHgQAQAAADQzh3gYyx/IIFAKgAyRiRHDCiDAhIiAImDg+bJgMJuLE8ZuGOCjkwBHI6AeQwPAOsAAAAAACAABgAAAAAAQAAAAAAAAAAA==

> <PUBCHEM_IUPAC_OPENEYE_NAME>
5-(4-benzyloxyphenyl)-2,6-bis(p-tolylsulfonyl)-1,3,4,5-tetrahydroazepino[4,3-b]indole

> <PUBCHEM_IUPAC_CAS_NAME>
2,6-bis-(4-methylphenyl)sulfonyl-5-(4-phenylmethoxyphenyl)-1,3,4,5-tetrahydroazepino[4,3-b]indole

> <PUBCHEM_IUPAC_NAME_MARKUP>
2,6-bis-(4-methylphenyl)sulfonyl-5-(4-phenylmethoxyphenyl)-1,3,4,5-tetrahydroazepino[4,3-b]indole

> <PUBCHEM_IUPAC_NAME>
2,6-bis-(4-methylphenyl)sulfonyl-5-(4-phenylmethoxyphenyl)-1,3,4,5-tetrahydroazepino[4,3-b]indole

> <PUBCHEM_IUPAC_SYSTEMATIC_NAME>
2,6-bis-(4-methylphenyl)sulfonyl-5-(4-phenylmethoxyphenyl)-1,3,4,5-tetrahydroazepino[4,3-b]indole

> <PUBCHEM_IUPAC_TRADITIONAL_NAME>
5-(4-benzoxyphenyl)-2,6-ditosyl-1,3,4,5-tetrahydroazepin[4,3-b]indole

> <PUBCHEM_IUPAC_INCHI>
InChI=1S/C39H36N2O5S2/c1-28-12-20-33(21-13-28)47(42,43)40-25-24-35(31-16-18-32(19-17-31)46-27-30-8-4-3-5-9-30)39-37(26-40)36-10-6-7-11-38(36)41(39)48(44,45)34-22-14-29(2)15-23-34/h3-23,35H,24-27H2,1-2H3

> <PUBCHEM_IUPAC_INCHIKEY>
TVPKENUBJBNQQB-UHFFFAOYSA-N

> <PUBCHEM_XLOGP3_AA>
7.9

> <PUBCHEM_EXACT_MASS>
676.20656460

> <PUBCHEM_MOLECULAR_FORMULA>
C39H36N2O5S2

> <PUBCHEM_MOLECULAR_WEIGHT>
676.8

> <PUBCHEM_OPENEYE_CAN_SMILES>
CC1=CC=C(C=C1)S(=O)(=O)N2CCC(C3=C(C2)C4=CC=CC=C4N3S(=O)(=O)C5=CC=C(C=C5)C)C6=CC=C(C=C6)OCC7=CC=CC=C7

> <PUBCHEM_OPENEYE_ISO_SMILES>
CC1=CC=C(C=C1)S(=O)(=O)N2CCC(C3=C(C2)C4=CC=CC=C4N3S(=O)(=O)C5=CC=C(C=C5)C)C6=CC=C(C=C6)OCC7=CC=CC=C7

> <PUBCHEM_CACTVS_TPSA>
102

> <PUBCHEM_MONOISOTOPIC_WEIGHT>
676.20656460

> <PUBCHEM_TOTAL_CHARGE>
0

> <PUBCHEM_HEAVY_ATOM_COUNT>
48

> <PUBCHEM_ATOM_DEF_STEREO_COUNT>
0

> <PUBCHEM_ATOM_UDEF_STEREO_COUNT>
1

> <PUBCHEM_BOND_DEF_STEREO_COUNT>
0

> <PUBCHEM_BOND_UDEF_STEREO_COUNT>
0

> <PUBCHEM_ISOTOPIC_ATOM_COUNT>
0

> <PUBCHEM_COMPONENT_COUNT>
1

> <PUBCHEM_CACTVS_TAUTO_COUNT>
-1

> <PUBCHEM_COORDINATE_TYPE>
1
5
255

> <PUBCHEM_BONDANNOTATIONS>
10  18  3
11  12  8
12  16  8
16  17  8
16  19  8
17  20  8
18  21  8
18  22  8
19  25  8
20  26  8
21  27  8
22  28  8
23  30  8
23  31  8
24  32  8
24  33  8
25  26  8
27  29  8
28  29  8
30  34  8
31  35  8
32  36  8
33  37  8
34  38  8
35  38  8
36  39  8
37  39  8
43  44  8
43  45  8
44  46  8
45  47  8
46  48  8
47  48  8
8  11  8
8  17  8

$$$$
