 
  -OEChem-10192103572D

100101  0     1  0  0  0  0  0999 V2000
    5.4641    2.8529    0.0000 S   0  0  0  0  0  0  0  0  0  0  0  0
    7.1962   -0.1471    0.0000 O   0  0  0  0  0  0  0  0  0  0  0  0
    5.4641    1.8529    0.0000 O   0  0  0  0  0  0  0  0  0  0  0  0
    6.3301   -1.6471    0.0000 O   0  0  0  0  0  0  0  0  0  0  0  0
    7.1962    1.8529    0.0000 O   0  0  0  0  0  0  0  0  0  0  0  0
    5.4641   -1.1471    0.0000 O   0  0  0  0  0  0  0  0  0  0  0  0
    3.7320   -0.1471    0.0000 O   0  0  0  0  0  0  0  0  0  0  0  0
    8.9282   -1.1471    0.0000 O   0  0  0  0  0  0  0  0  0  0  0  0
    8.9282   -3.1471    0.0000 O   0  0  0  0  0  0  0  0  0  0  0  0
    7.1962   -4.1471    0.0000 O   0  0  0  0  0  0  0  0  0  0  0  0
    3.7320    2.8529    0.0000 O   0  0  0  0  0  0  0  0  0  0  0  0
    5.4641   -4.1471    0.0000 O   0  0  0  0  0  0  0  0  0  0  0  0
    3.7320   -1.1471    0.0000 O   0  0  0  0  0  0  0  0  0  0  0  0
    2.8660    1.3529    0.0000 O   0  0  0  0  0  0  0  0  0  0  0  0
    9.7942   -2.6471    0.0000 O   0  0  0  0  0  0  0  0  0  0  0  0
    8.0622   -4.6471    0.0000 O   0  0  0  0  0  0  0  0  0  0  0  0
    5.8693   -5.2604    0.0000 O   0  0  0  0  0  0  0  0  0  0  0  0
    2.0000    2.8529    0.0000 O   0  0  0  0  0  0  0  0  0  0  0  0
    3.7320   -4.1471    0.0000 O   0  0  0  0  0  0  0  0  0  0  0  0
    6.3301    0.3529    0.0000 C   0  0  1  0  0  0  0  0  0  0  0  0
    5.4641   -0.1471    0.0000 C   0  0  2  0  0  0  0  0  0  0  0  0
    4.5981    0.3529    0.0000 C   0  0  1  0  0  0  0  0  0  0  0  0
    7.1962   -1.1471    0.0000 C   0  0  2  0  0  0  0  0  0  0  0  0
    8.0622   -1.6471    0.0000 C   0  0  2  0  0  0  0  0  0  0  0  0
    6.3301    1.3529    0.0000 C   0  0  1  0  0  0  0  0  0  0  0  0
    8.0622   -2.6471    0.0000 C   0  0  2  0  0  0  0  0  0  0  0  0
    4.5981    1.3529    0.0000 C   0  0  1  0  0  0  0  0  0  0  0  0
    7.1962   -3.1471    0.0000 C   0  0  1  0  0  0  0  0  0  0  0  0
    6.3301   -2.6471    0.0000 C   0  0  1  0  0  0  0  0  0  0  0  0
    3.7320    1.8529    0.0000 C   0  0  0  0  0  0  0  0  0  0  0  0
    5.4641   -3.1471    0.0000 C   0  0  0  0  0  0  0  0  0  0  0  0
    7.1962    2.8529    0.0000 C   0  0  3  0  0  0  0  0  0  0  0  0
    8.0622    3.3529    0.0000 C   0  0  0  0  0  0  0  0  0  0  0  0
    4.5981   -1.6471    0.0000 C   0  0  0  0  0  0  0  0  0  0  0  0
    2.8660    0.3529    0.0000 C   0  0  0  0  0  0  0  0  0  0  0  0
    6.3301    3.3529    0.0000 C   0  0  0  0  0  0  0  0  0  0  0  0
    9.7942   -1.6471    0.0000 C   0  0  0  0  0  0  0  0  0  0  0  0
    8.0622    4.3529    0.0000 C   0  0  0  0  0  0  0  0  0  0  0  0
    8.9282   -4.1471    0.0000 C   0  0  0  0  0  0  0  0  0  0  0  0
    6.8541   -5.0868    0.0000 C   0  0  0  0  0  0  0  0  0  0  0  0
    8.9282    4.8529    0.0000 C   0  0  0  0  0  0  0  0  0  0  0  0
    4.5981   -2.6471    0.0000 C   0  0  0  0  0  0  0  0  0  0  0  0
    2.0000   -0.1471    0.0000 C   0  0  0  0  0  0  0  0  0  0  0  0
    2.8660    3.3529    0.0000 C   0  0  0  0  0  0  0  0  0  0  0  0
    6.3301    4.3529    0.0000 C   0  0  0  0  0  0  0  0  0  0  0  0
   10.6603   -1.1471    0.0000 C   0  0  0  0  0  0  0  0  0  0  0  0
    9.7942   -4.6471    0.0000 C   0  0  0  0  0  0  0  0  0  0  0  0
    7.4970   -5.8529    0.0000 C   0  0  0  0  0  0  0  0  0  0  0  0
    4.5981   -4.6471    0.0000 C   0  0  0  0  0  0  0  0  0  0  0  0
    8.9282    5.8529    0.0000 C   0  0  0  0  0  0  0  0  0  0  0  0
    2.8660    4.3529    0.0000 C   0  0  0  0  0  0  0  0  0  0  0  0
    4.5981   -5.6471    0.0000 C   0  0  0  0  0  0  0  0  0  0  0  0
    6.3301   -0.2671    0.0000 H   0  0  0  0  0  0  0  0  0  0  0  0
    4.9272   -0.4571    0.0000 H   0  0  0  0  0  0  0  0  0  0  0  0
    4.5981   -0.2671    0.0000 H   0  0  0  0  0  0  0  0  0  0  0  0
    7.7331   -0.8371    0.0000 H   0  0  0  0  0  0  0  0  0  0  0  0
    8.5991   -1.9571    0.0000 H   0  0  0  0  0  0  0  0  0  0  0  0
    6.3301    1.9729    0.0000 H   0  0  0  0  0  0  0  0  0  0  0  0
    8.5991   -2.3371    0.0000 H   0  0  0  0  0  0  0  0  0  0  0  0
    4.5981    1.9729    0.0000 H   0  0  0  0  0  0  0  0  0  0  0  0
    7.7331   -3.4571    0.0000 H   0  0  0  0  0  0  0  0  0  0  0  0
    5.7932   -2.3371    0.0000 H   0  0  0  0  0  0  0  0  0  0  0  0
    3.1215    1.9605    0.0000 H   0  0  0  0  0  0  0  0  0  0  0  0
    3.5200    1.2703    0.0000 H   0  0  0  0  0  0  0  0  0  0  0  0
    5.2520   -2.5645    0.0000 H   0  0  0  0  0  0  0  0  0  0  0  0
    4.8535   -3.2548    0.0000 H   0  0  0  0  0  0  0  0  0  0  0  0
    7.7331    2.5429    0.0000 H   0  0  0  0  0  0  0  0  0  0  0  0
    8.2742    2.7703    0.0000 H   0  0  0  0  0  0  0  0  0  0  0  0
    8.6728    3.4605    0.0000 H   0  0  0  0  0  0  0  0  0  0  0  0
    7.8501    4.9355    0.0000 H   0  0  0  0  0  0  0  0  0  0  0  0
    7.4516    4.2452    0.0000 H   0  0  0  0  0  0  0  0  0  0  0  0
    9.1403    4.2703    0.0000 H   0  0  0  0  0  0  0  0  0  0  0  0
    9.5388    4.9605    0.0000 H   0  0  0  0  0  0  0  0  0  0  0  0
    3.9781   -2.6471    0.0000 H   0  0  0  0  0  0  0  0  0  0  0  0
    4.5981   -3.2671    0.0000 H   0  0  0  0  0  0  0  0  0  0  0  0
    5.2181   -2.6471    0.0000 H   0  0  0  0  0  0  0  0  0  0  0  0
    1.6900    0.3898    0.0000 H   0  0  0  0  0  0  0  0  0  0  0  0
    1.4631   -0.4571    0.0000 H   0  0  0  0  0  0  0  0  0  0  0  0
    2.3100   -0.6841    0.0000 H   0  0  0  0  0  0  0  0  0  0  0  0
    6.9501    4.3529    0.0000 H   0  0  0  0  0  0  0  0  0  0  0  0
    6.3301    4.9729    0.0000 H   0  0  0  0  0  0  0  0  0  0  0  0
    5.7101    4.3529    0.0000 H   0  0  0  0  0  0  0  0  0  0  0  0
   10.9703   -1.6841    0.0000 H   0  0  0  0  0  0  0  0  0  0  0  0
   11.1972   -0.8371    0.0000 H   0  0  0  0  0  0  0  0  0  0  0  0
   10.3503   -0.6102    0.0000 H   0  0  0  0  0  0  0  0  0  0  0  0
    9.4842   -5.1841    0.0000 H   0  0  0  0  0  0  0  0  0  0  0  0
   10.3312   -4.9571    0.0000 H   0  0  0  0  0  0  0  0  0  0  0  0
   10.1042   -4.1102    0.0000 H   0  0  0  0  0  0  0  0  0  0  0  0
    7.0220   -6.2514    0.0000 H   0  0  0  0  0  0  0  0  0  0  0  0
    7.8955   -6.3278    0.0000 H   0  0  0  0  0  0  0  0  0  0  0  0
    7.9719   -5.4543    0.0000 H   0  0  0  0  0  0  0  0  0  0  0  0
    9.5482    5.8529    0.0000 H   0  0  0  0  0  0  0  0  0  0  0  0
    8.9282    6.4729    0.0000 H   0  0  0  0  0  0  0  0  0  0  0  0
    8.3082    5.8529    0.0000 H   0  0  0  0  0  0  0  0  0  0  0  0
    3.4860    4.3529    0.0000 H   0  0  0  0  0  0  0  0  0  0  0  0
    2.8660    4.9729    0.0000 H   0  0  0  0  0  0  0  0  0  0  0  0
    2.2460    4.3529    0.0000 H   0  0  0  0  0  0  0  0  0  0  0  0
    3.9781   -5.6471    0.0000 H   0  0  0  0  0  0  0  0  0  0  0  0
    4.5981   -6.2671    0.0000 H   0  0  0  0  0  0  0  0  0  0  0  0
    5.2181   -5.6471    0.0000 H   0  0  0  0  0  0  0  0  0  0  0  0
  1 36  2  0  0  0  0
 20  2  1  1  0  0  0
 23  2  1  1  0  0  0
  3 25  1  0  0  0  0
  3 27  1  0  0  0  0
  4 23  1  0  0  0  0
  4 29  1  0  0  0  0
 25  5  1  1  0  0  0
  5 32  1  0  0  0  0
 21  6  1  1  0  0  0
  6 34  1  0  0  0  0
 22  7  1  6  0  0  0
  7 35  1  0  0  0  0
 24  8  1  1  0  0  0
  8 37  1  0  0  0  0
 26  9  1  1  0  0  0
  9 39  1  0  0  0  0
 28 10  1  6  0  0  0
 10 40  1  0  0  0  0
 11 30  1  0  0  0  0
 11 44  1  0  0  0  0
 12 31  1  0  0  0  0
 12 49  1  0  0  0  0
 13 34  2  0  0  0  0
 14 35  2  0  0  0  0
 15 37  2  0  0  0  0
 16 39  2  0  0  0  0
 17 40  2  0  0  0  0
 18 44  2  0  0  0  0
 19 49  2  0  0  0  0
 20 21  1  0  0  0  0
 20 25  1  0  0  0  0
 20 53  1  0  0  0  0
 21 22  1  0  0  0  0
 21 54  1  0  0  0  0
 22 27  1  0  0  0  0
 22 55  1  0  0  0  0
 23 24  1  0  0  0  0
 23 56  1  0  0  0  0
 24 26  1  0  0  0  0
 24 57  1  0  0  0  0
 25 58  1  0  0  0  0
 26 28  1  0  0  0  0
 26 59  1  0  0  0  0
 27 30  1  1  0  0  0
 27 60  1  0  0  0  0
 28 29  1  0  0  0  0
 28 61  1  0  0  0  0
 29 31  1  1  0  0  0
 29 62  1  0  0  0  0
 30 63  1  0  0  0  0
 30 64  1  0  0  0  0
 31 65  1  0  0  0  0
 31 66  1  0  0  0  0
 32 33  1  0  0  0  0
 32 36  1  0  0  0  0
 32 67  1  0  0  0  0
 33 38  1  0  0  0  0
 33 68  1  0  0  0  0
 33 69  1  0  0  0  0
 34 42  1  0  0  0  0
 35 43  1  0  0  0  0
 36 45  1  0  0  0  0
 37 46  1  0  0  0  0
 38 41  1  0  0  0  0
 38 70  1  0  0  0  0
 38 71  1  0  0  0  0
 39 47  1  0  0  0  0
 40 48  1  0  0  0  0
 41 50  1  0  0  0  0
 41 72  1  0  0  0  0
 41 73  1  0  0  0  0
 42 74  1  0  0  0  0
 42 75  1  0  0  0  0
 42 76  1  0  0  0  0
 43 77  1  0  0  0  0
 43 78  1  0  0  0  0
 43 79  1  0  0  0  0
 44 51  1  0  0  0  0
 45 80  1  0  0  0  0
 45 81  1  0  0  0  0
 45 82  1  0  0  0  0
 46 83  1  0  0  0  0
 46 84  1  0  0  0  0
 46 85  1  0  0  0  0
 47 86  1  0  0  0  0
 47 87  1  0  0  0  0
 47 88  1  0  0  0  0
 48 89  1  0  0  0  0
 48 90  1  0  0  0  0
 48 91  1  0  0  0  0
 49 52  1  0  0  0  0
 50 92  1  0  0  0  0
 50 93  1  0  0  0  0
 50 94  1  0  0  0  0
 51 95  1  0  0  0  0
 51 96  1  0  0  0  0
 51 97  1  0  0  0  0
 52 98  1  0  0  0  0
 52 99  1  0  0  0  0
 52100  1  0  0  0  0
M  END
> <PUBCHEM_COMPOUND_CID>
131738878

> <PUBCHEM_COMPOUND_CANONICALIZED>
1

> <PUBCHEM_CACTVS_COMPLEXITY>
1300

> <PUBCHEM_CACTVS_HBOND_ACCEPTOR>
19

> <PUBCHEM_CACTVS_HBOND_DONOR>
0

> <PUBCHEM_CACTVS_ROTATABLE_BOND>
24

> <PUBCHEM_CACTVS_SUBSKEYS>
AAADcfB8PgBAAAAAAAAAAAAAAAAAAAAAAAAkSAAAAAAAAAAAAAAAGgQAAAAACBSwwAMCCAAABAAMAACQCAAAAAAAAAAAAAAAAAARAAIAAAAiAAAFAAAGAAHA4AwAAAAAAAAAAAAAAAAAAAAAAAAAAAAAAA==

> <PUBCHEM_IUPAC_OPENEYE_NAME>
[(2R,3R,4S,5S,6S)-3,4-diacetoxy-6-(1-ethanethioylpentoxy)-5-[(2S,3S,4S,5R,6R)-3,4,5-triacetoxy-6-(acetoxymethyl)tetrahydropyran-2-yl]oxy-tetrahydropyran-2-yl]methyl acetate

> <PUBCHEM_IUPAC_CAS_NAME>
acetic acid [(2R,3R,4S,5S,6S)-3,4-diacetyloxy-6-(2-sulfanylideneheptan-3-yloxy)-5-[[(2S,3S,4S,5R,6R)-3,4,5-triacetyloxy-6-(acetyloxymethyl)-2-oxanyl]oxy]-2-oxanyl]methyl ester

> <PUBCHEM_IUPAC_NAME_MARKUP>
[(2<I>R</I>,3<I>R</I>,4<I>S</I>,5<I>S</I>,6<I>S</I>)-3,4-diacetyloxy-6-(2-sulfanylideneheptan-3-yloxy)-5-[(2<I>S</I>,3<I>S</I>,4<I>S</I>,5<I>R</I>,6<I>R</I>)-3,4,5-triacetyloxy-6-(acetyloxymethyl)oxan-2-yl]oxyoxan-2-yl]methyl acetate

> <PUBCHEM_IUPAC_NAME>
[(2R,3R,4S,5S,6S)-3,4-diacetyloxy-6-(2-sulfanylideneheptan-3-yloxy)-5-[(2S,3S,4S,5R,6R)-3,4,5-triacetyloxy-6-(acetyloxymethyl)oxan-2-yl]oxyoxan-2-yl]methyl acetate

> <PUBCHEM_IUPAC_SYSTEMATIC_NAME>
[(2R,3R,4S,5S,6S)-3,4-diacetyloxy-6-(2-sulfanylideneheptan-3-yloxy)-5-[(2S,3S,4S,5R,6R)-3,4,5-triacetyloxy-6-(acetyloxymethyl)oxan-2-yl]oxy-oxan-2-yl]methyl ethanoate

> <PUBCHEM_IUPAC_TRADITIONAL_NAME>
acetic acid [(2R,3R,4S,5S,6S)-3,4-diacetoxy-6-(1-thioacetylpentoxy)-5-[(2S,3S,4S,5R,6R)-3,4,5-triacetoxy-6-(acetoxymethyl)tetrahydropyran-2-yl]oxy-tetrahydropyran-2-yl]methyl ester

> <PUBCHEM_IUPAC_INCHI>
InChI=1S/C33H48O18S/c1-10-11-12-23(15(2)52)48-32-31(29(46-21(8)39)27(44-19(6)37)24(49-32)13-41-16(3)34)51-33-30(47-22(9)40)28(45-20(7)38)26(43-18(5)36)25(50-33)14-42-17(4)35/h23-33H,10-14H2,1-9H3/t23?,24-,25-,26-,27-,28+,29+,30+,31+,32-,33+/m1/s1

> <PUBCHEM_IUPAC_INCHIKEY>
KTJSEHUZRQBULP-KPCVLQOLSA-N

> <PUBCHEM_XLOGP3_AA>
1.4

> <PUBCHEM_EXACT_MASS>
764.25613585

> <PUBCHEM_MOLECULAR_FORMULA>
C33H48O18S

> <PUBCHEM_MOLECULAR_WEIGHT>
764.8

> <PUBCHEM_OPENEYE_CAN_SMILES>
CCCCC(C(=S)C)OC1C(C(C(C(O1)COC(=O)C)OC(=O)C)OC(=O)C)OC2C(C(C(C(O2)COC(=O)C)OC(=O)C)OC(=O)C)OC(=O)C

> <PUBCHEM_OPENEYE_ISO_SMILES>
CCCCC(C(=S)C)O[C@H]1[C@H]([C@H]([C@@H]([C@H](O1)COC(=O)C)OC(=O)C)OC(=O)C)O[C@H]2[C@H]([C@H]([C@@H]([C@H](O2)COC(=O)C)OC(=O)C)OC(=O)C)OC(=O)C

> <PUBCHEM_CACTVS_TPSA>
253

> <PUBCHEM_MONOISOTOPIC_WEIGHT>
764.25613585

> <PUBCHEM_TOTAL_CHARGE>
0

> <PUBCHEM_HEAVY_ATOM_COUNT>
52

> <PUBCHEM_ATOM_DEF_STEREO_COUNT>
10

> <PUBCHEM_ATOM_UDEF_STEREO_COUNT>
1

> <PUBCHEM_BOND_DEF_STEREO_COUNT>
0

> <PUBCHEM_BOND_UDEF_STEREO_COUNT>
0

> <PUBCHEM_ISOTOPIC_ATOM_COUNT>
0

> <PUBCHEM_COMPONENT_COUNT>
1

> <PUBCHEM_CACTVS_TAUTO_COUNT>
-1

> <PUBCHEM_COORDINATE_TYPE>
1
5
255

> <PUBCHEM_BONDANNOTATIONS>
28  10  6
20  2  5
23  2  5
27  30  5
29  31  5
32  33  3
25  5  5
21  6  5
22  7  6
24  8  5
26  9  5

$$$$
