 
  -OEChem-10192103452D

 98 98  0     1  0  0  0  0  0999 V2000
    5.1350    2.0000    0.0000 S   0  0  0  0  0  0  0  0  0  0  0  0
    5.1350   -2.0000    0.0000 S   0  0  0  0  0  0  0  0  0  0  0  0
    3.4030    1.0000    0.0000 O   0  0  0  0  0  0  0  0  0  0  0  0
    3.4030   -1.0000    0.0000 O   0  0  0  0  0  0  0  0  0  0  0  0
    6.8671    5.0000    0.0000 O   0  0  0  0  0  0  0  0  0  0  0  0
    6.0010    5.5000    0.0000 O   0  0  0  0  0  0  0  0  0  0  0  0
    6.8671   -5.0000    0.0000 O   0  0  0  0  0  0  0  0  0  0  0  0
    6.0010   -5.5000    0.0000 O   0  0  0  0  0  0  0  0  0  0  0  0
    2.5369    8.5000    0.0000 O   0  0  0  0  0  0  0  0  0  0  0  0
    2.5369   -8.5000    0.0000 O   0  0  0  0  0  0  0  0  0  0  0  0
    4.2690    8.5000    0.0000 O   0  0  0  0  0  0  0  0  0  0  0  0
    4.2690   -8.5000    0.0000 O   0  0  0  0  0  0  0  0  0  0  0  0
   10.3312    4.0000    0.0000 O   0  0  0  0  0  0  0  0  0  0  0  0
   10.3312   -4.0000    0.0000 O   0  0  0  0  0  0  0  0  0  0  0  0
    9.4651    2.5000    0.0000 O   0  0  0  0  0  0  0  0  0  0  0  0
    9.4651   -2.5000    0.0000 O   0  0  0  0  0  0  0  0  0  0  0  0
    8.5991    1.0000    0.0000 N   0  0  0  0  0  0  0  0  0  0  0  0
    5.1350    4.0000    0.0000 N   0  0  0  0  0  0  0  0  0  0  0  0
    5.1350   -4.0000    0.0000 N   0  0  0  0  0  0  0  0  0  0  0  0
    7.7331    3.5000    0.0000 N   0  0  0  0  0  0  0  0  0  0  0  0
    7.7331   -3.5000    0.0000 N   0  0  0  0  0  0  0  0  0  0  0  0
    2.5369    6.5000    0.0000 N   0  0  0  0  0  0  0  0  0  0  0  0
    2.5369   -6.5000    0.0000 N   0  0  0  0  0  0  0  0  0  0  0  0
    6.8671    1.0000    0.0000 C   0  0  0  0  0  0  0  0  0  0  0  0
    7.7331    0.5000    0.0000 C   0  0  2  0  0  0  0  0  0  0  0  0
    6.0010    0.5000    0.0000 C   0  0  0  0  0  0  0  0  0  0  0  0
    5.1350    1.0000    0.0000 C   0  0  0  0  0  0  0  0  0  0  0  0
    6.0010   -0.5000    0.0000 C   0  0  0  0  0  0  0  0  0  0  0  0
    6.0010    3.5000    0.0000 C   0  0  2  0  0  0  0  0  0  0  0  0
    7.7331   -0.5000    0.0000 C   0  0  0  0  0  0  0  0  0  0  0  0
    5.1350   -1.0000    0.0000 C   0  0  0  0  0  0  0  0  0  0  0  0
    6.0010    2.5000    0.0000 C   0  0  0  0  0  0  0  0  0  0  0  0
    4.2690    0.5000    0.0000 C   0  0  0  0  0  0  0  0  0  0  0  0
    6.0010   -3.5000    0.0000 C   0  0  2  0  0  0  0  0  0  0  0  0
    4.2690   -0.5000    0.0000 C   0  0  0  0  0  0  0  0  0  0  0  0
    6.0010   -2.5000    0.0000 C   0  0  0  0  0  0  0  0  0  0  0  0
    4.2690    5.5000    0.0000 C   0  0  0  0  0  0  0  0  0  0  0  0
    4.2690    6.5000    0.0000 C   0  0  0  0  0  0  0  0  0  0  0  0
    6.8671    4.0000    0.0000 C   0  0  0  0  0  0  0  0  0  0  0  0
    4.2690   -5.5000    0.0000 C   0  0  0  0  0  0  0  0  0  0  0  0
    9.4651    0.5000    0.0000 C   0  0  0  0  0  0  0  0  0  0  0  0
    5.1350    5.0000    0.0000 C   0  0  0  0  0  0  0  0  0  0  0  0
    4.2690   -6.5000    0.0000 C   0  0  0  0  0  0  0  0  0  0  0  0
    6.8671   -4.0000    0.0000 C   0  0  0  0  0  0  0  0  0  0  0  0
    5.1350   -5.0000    0.0000 C   0  0  0  0  0  0  0  0  0  0  0  0
    3.4030    7.0000    0.0000 C   0  0  1  0  0  0  0  0  0  0  0  0
    3.4030   -7.0000    0.0000 C   0  0  1  0  0  0  0  0  0  0  0  0
    8.5991    4.0000    0.0000 C   0  0  0  0  0  0  0  0  0  0  0  0
    3.4030    8.0000    0.0000 C   0  0  0  0  0  0  0  0  0  0  0  0
    3.4030   -8.0000    0.0000 C   0  0  0  0  0  0  0  0  0  0  0  0
    8.5991   -4.0000    0.0000 C   0  0  0  0  0  0  0  0  0  0  0  0
    9.4651    3.5000    0.0000 C   0  0  0  0  0  0  0  0  0  0  0  0
    9.4651   -3.5000    0.0000 C   0  0  0  0  0  0  0  0  0  0  0  0
    7.2656    1.4750    0.0000 H   0  0  0  0  0  0  0  0  0  0  0  0
    6.4685    1.4750    0.0000 H   0  0  0  0  0  0  0  0  0  0  0  0
    7.7331    1.1200    0.0000 H   0  0  0  0  0  0  0  0  0  0  0  0
    6.5380   -0.8100    0.0000 H   0  0  0  0  0  0  0  0  0  0  0  0
    5.4641    3.1900    0.0000 H   0  0  0  0  0  0  0  0  0  0  0  0
    7.1131   -0.5000    0.0000 H   0  0  0  0  0  0  0  0  0  0  0  0
    7.7331   -1.1200    0.0000 H   0  0  0  0  0  0  0  0  0  0  0  0
    8.3531   -0.5000    0.0000 H   0  0  0  0  0  0  0  0  0  0  0  0
    6.2131    1.9174    0.0000 H   0  0  0  0  0  0  0  0  0  0  0  0
    6.6116    2.6077    0.0000 H   0  0  0  0  0  0  0  0  0  0  0  0
    8.5991    1.6200    0.0000 H   0  0  0  0  0  0  0  0  0  0  0  0
    5.4641   -3.1900    0.0000 H   0  0  0  0  0  0  0  0  0  0  0  0
    6.6116   -2.6077    0.0000 H   0  0  0  0  0  0  0  0  0  0  0  0
    6.2131   -1.9174    0.0000 H   0  0  0  0  0  0  0  0  0  0  0  0
    4.5981    3.6900    0.0000 H   0  0  0  0  0  0  0  0  0  0  0  0
    3.6584    5.6077    0.0000 H   0  0  0  0  0  0  0  0  0  0  0  0
    4.0569    4.9174    0.0000 H   0  0  0  0  0  0  0  0  0  0  0  0
    4.5981   -3.6900    0.0000 H   0  0  0  0  0  0  0  0  0  0  0  0
    4.8796    6.3923    0.0000 H   0  0  0  0  0  0  0  0  0  0  0  0
    4.4810    7.0826    0.0000 H   0  0  0  0  0  0  0  0  0  0  0  0
    4.0569   -4.9174    0.0000 H   0  0  0  0  0  0  0  0  0  0  0  0
    3.6584   -5.6077    0.0000 H   0  0  0  0  0  0  0  0  0  0  0  0
    9.1551   -0.0369    0.0000 H   0  0  0  0  0  0  0  0  0  0  0  0
   10.0021    0.1900    0.0000 H   0  0  0  0  0  0  0  0  0  0  0  0
    9.7751    1.0369    0.0000 H   0  0  0  0  0  0  0  0  0  0  0  0
    4.4810   -7.0826    0.0000 H   0  0  0  0  0  0  0  0  0  0  0  0
    4.8796   -6.3923    0.0000 H   0  0  0  0  0  0  0  0  0  0  0  0
    3.4030    6.3800    0.0000 H   0  0  0  0  0  0  0  0  0  0  0  0
    3.4030   -6.3800    0.0000 H   0  0  0  0  0  0  0  0  0  0  0  0
    7.7331    2.8800    0.0000 H   0  0  0  0  0  0  0  0  0  0  0  0
    2.8660    0.6900    0.0000 H   0  0  0  0  0  0  0  0  0  0  0  0
    3.4030   -1.6200    0.0000 H   0  0  0  0  0  0  0  0  0  0  0  0
    7.7331   -2.8800    0.0000 H   0  0  0  0  0  0  0  0  0  0  0  0
    8.9976    4.4750    0.0000 H   0  0  0  0  0  0  0  0  0  0  0  0
    8.2006    4.4750    0.0000 H   0  0  0  0  0  0  0  0  0  0  0  0
    2.0000    6.8100    0.0000 H   0  0  0  0  0  0  0  0  0  0  0  0
    2.5369    5.8800    0.0000 H   0  0  0  0  0  0  0  0  0  0  0  0
    8.2006   -4.4750    0.0000 H   0  0  0  0  0  0  0  0  0  0  0  0
    8.9976   -4.4750    0.0000 H   0  0  0  0  0  0  0  0  0  0  0  0
    2.0000   -6.8100    0.0000 H   0  0  0  0  0  0  0  0  0  0  0  0
    2.5369   -5.8800    0.0000 H   0  0  0  0  0  0  0  0  0  0  0  0
    2.5369    9.1200    0.0000 H   0  0  0  0  0  0  0  0  0  0  0  0
    2.5369   -9.1200    0.0000 H   0  0  0  0  0  0  0  0  0  0  0  0
   10.8681    3.6900    0.0000 H   0  0  0  0  0  0  0  0  0  0  0  0
   10.8681   -3.6900    0.0000 H   0  0  0  0  0  0  0  0  0  0  0  0
  1 27  1  0  0  0  0
  1 32  1  0  0  0  0
  2 31  1  0  0  0  0
  2 36  1  0  0  0  0
  3 33  1  0  0  0  0
  3 84  1  0  0  0  0
  4 35  1  0  0  0  0
  4 85  1  0  0  0  0
  5 39  2  0  0  0  0
  6 42  2  0  0  0  0
  7 44  2  0  0  0  0
  8 45  2  0  0  0  0
  9 49  1  0  0  0  0
  9 95  1  0  0  0  0
 10 50  1  0  0  0  0
 10 96  1  0  0  0  0
 11 49  2  0  0  0  0
 12 50  2  0  0  0  0
 13 52  1  0  0  0  0
 13 97  1  0  0  0  0
 14 53  1  0  0  0  0
 14 98  1  0  0  0  0
 15 52  2  0  0  0  0
 16 53  2  0  0  0  0
 25 17  1  1  0  0  0
 17 41  1  0  0  0  0
 17 64  1  0  0  0  0
 29 18  1  1  0  0  0
 18 42  1  0  0  0  0
 18 68  1  0  0  0  0
 34 19  1  6  0  0  0
 19 45  1  0  0  0  0
 19 71  1  0  0  0  0
 20 39  1  0  0  0  0
 20 48  1  0  0  0  0
 20 83  1  0  0  0  0
 21 44  1  0  0  0  0
 21 51  1  0  0  0  0
 21 86  1  0  0  0  0
 46 22  1  6  0  0  0
 22 89  1  0  0  0  0
 22 90  1  0  0  0  0
 47 23  1  1  0  0  0
 23 93  1  0  0  0  0
 23 94  1  0  0  0  0
 24 25  1  0  0  0  0
 24 26  1  0  0  0  0
 24 54  1  0  0  0  0
 24 55  1  0  0  0  0
 25 30  1  0  0  0  0
 25 56  1  0  0  0  0
 26 27  1  0  0  0  0
 26 28  2  0  0  0  0
 27 33  2  0  0  0  0
 28 31  1  0  0  0  0
 28 57  1  0  0  0  0
 29 32  1  0  0  0  0
 29 39  1  0  0  0  0
 29 58  1  0  0  0  0
 30 59  1  0  0  0  0
 30 60  1  0  0  0  0
 30 61  1  0  0  0  0
 31 35  2  0  0  0  0
 32 62  1  0  0  0  0
 32 63  1  0  0  0  0
 33 35  1  0  0  0  0
 34 36  1  0  0  0  0
 34 44  1  0  0  0  0
 34 65  1  0  0  0  0
 36 66  1  0  0  0  0
 36 67  1  0  0  0  0
 37 38  1  0  0  0  0
 37 42  1  0  0  0  0
 37 69  1  0  0  0  0
 37 70  1  0  0  0  0
 38 46  1  0  0  0  0
 38 72  1  0  0  0  0
 38 73  1  0  0  0  0
 40 43  1  0  0  0  0
 40 45  1  0  0  0  0
 40 74  1  0  0  0  0
 40 75  1  0  0  0  0
 41 76  1  0  0  0  0
 41 77  1  0  0  0  0
 41 78  1  0  0  0  0
 43 47  1  0  0  0  0
 43 79  1  0  0  0  0
 43 80  1  0  0  0  0
 46 49  1  0  0  0  0
 46 81  1  0  0  0  0
 47 50  1  0  0  0  0
 47 82  1  0  0  0  0
 48 52  1  0  0  0  0
 48 87  1  0  0  0  0
 48 88  1  0  0  0  0
 51 53  1  0  0  0  0
 51 91  1  0  0  0  0
 51 92  1  0  0  0  0
M  END
> <PUBCHEM_COMPOUND_CID>
57409811

> <PUBCHEM_COMPOUND_CANONICALIZED>
1

> <PUBCHEM_CACTVS_COMPLEXITY>
1300

> <PUBCHEM_CACTVS_HBOND_ACCEPTOR>
19

> <PUBCHEM_CACTVS_HBOND_DONOR>
13

> <PUBCHEM_CACTVS_ROTATABLE_BOND>
25

> <PUBCHEM_CACTVS_SUBSKEYS>
AAADcfB7vABgAAAAAAAAAAAAAAAAAAAAAAAwAAAAAAAAAAABAAAAHgQQCAAADCzF2ASyD4LAAgiIAiHSGAACAAAgKBAAiJuMiIgLZjKikTOUcAEk1hG5mAec17MOIAgBhAAEYABAEAMIAAjAAAAAAAAAAA==

> <PUBCHEM_IUPAC_OPENEYE_NAME>
(2S)-2-amino-5-[[(1S)-1-[[4-[(2S)-2-[[(4S)-4-amino-4-carboxy-butanoyl]amino]-3-(carboxymethylamino)-3-oxo-propyl]sulfanyl-2,3-dihydroxy-5-[(2S)-2-(methylamino)propyl]phenyl]sulfanylmethyl]-2-(carboxymethylamino)-2-oxo-ethyl]amino]-5-oxo-pentanoic acid

> <PUBCHEM_IUPAC_CAS_NAME>
(2S)-2-amino-5-[[(2S)-3-[[4-[[(2S)-2-[[(4S)-4-amino-4-carboxy-1-oxobutyl]amino]-3-(carboxymethylamino)-3-oxopropyl]thio]-2,3-dihydroxy-5-[(2S)-2-(methylamino)propyl]phenyl]thio]-1-(carboxymethylamino)-1-oxopropan-2-yl]amino]-5-oxopentanoic acid

> <PUBCHEM_IUPAC_NAME_MARKUP>
(2<I>S</I>)-2-amino-5-[[(2<I>S</I>)-3-[4-[(2<I>S</I>)-2-[[(4<I>S</I>)-4-amino-4-carboxybutanoyl]amino]-3-(carboxymethylamino)-3-oxopropyl]sulfanyl-2,3-dihydroxy-5-[(2<I>S</I>)-2-(methylamino)propyl]phenyl]sulfanyl-1-(carboxymethylamino)-1-oxopropan-2-yl]amino]-5-oxopentanoic acid

> <PUBCHEM_IUPAC_NAME>
(2S)-2-amino-5-[[(2S)-3-[4-[(2S)-2-[[(4S)-4-amino-4-carboxybutanoyl]amino]-3-(carboxymethylamino)-3-oxopropyl]sulfanyl-2,3-dihydroxy-5-[(2S)-2-(methylamino)propyl]phenyl]sulfanyl-1-(carboxymethylamino)-1-oxopropan-2-yl]amino]-5-oxopentanoic acid

> <PUBCHEM_IUPAC_SYSTEMATIC_NAME>
(2S)-2-azanyl-5-[[(2S)-3-[4-[(2S)-2-[[(4S)-4-azanyl-5-oxidanyl-5-oxidanylidene-pentanoyl]amino]-3-(2-hydroxy-2-oxoethylamino)-3-oxidanylidene-propyl]sulfanyl-5-[(2S)-2-(methylamino)propyl]-2,3-bis(oxidanyl)phenyl]sulfanyl-1-(2-hydroxy-2-oxoethylamino)-1-oxidanylidene-propan-2-yl]amino]-5-oxidanylidene-pentanoic acid

> <PUBCHEM_IUPAC_TRADITIONAL_NAME>
(2S)-2-amino-5-[[(1S)-1-[[[4-[[(2S)-2-[[(4S)-4-amino-4-carboxy-butanoyl]amino]-3-(carboxymethylamino)-3-keto-propyl]thio]-2,3-dihydroxy-5-[(2S)-2-(methylamino)propyl]phenyl]thio]methyl]-2-(carboxymethylamino)-2-keto-ethyl]amino]-5-keto-valeric acid

> <PUBCHEM_IUPAC_INCHI>
InChI=1S/C30H45N7O14S2/c1-13(33-2)7-14-8-19(52-11-17(27(46)34-9-22(40)41)36-20(38)5-3-15(31)29(48)49)24(44)25(45)26(14)53-12-18(28(47)35-10-23(42)43)37-21(39)6-4-16(32)30(50)51/h8,13,15-18,33,44-45H,3-7,9-12,31-32H2,1-2H3,(H,34,46)(H,35,47)(H,36,38)(H,37,39)(H,40,41)(H,42,43)(H,48,49)(H,50,51)/t13-,15-,16-,17+,18+/m0/s1

> <PUBCHEM_IUPAC_INCHIKEY>
AKPPPXSTADAJAT-OGCZYDBJSA-N

> <PUBCHEM_XLOGP3_AA>
-9.8

> <PUBCHEM_EXACT_MASS>
791.24659148

> <PUBCHEM_MOLECULAR_FORMULA>
C30H45N7O14S2

> <PUBCHEM_MOLECULAR_WEIGHT>
791.9

> <PUBCHEM_OPENEYE_CAN_SMILES>
CC(CC1=CC(=C(C(=C1SCC(C(=O)NCC(=O)O)NC(=O)CCC(C(=O)O)N)O)O)SCC(C(=O)NCC(=O)O)NC(=O)CCC(C(=O)O)N)NC

> <PUBCHEM_OPENEYE_ISO_SMILES>
C[C@@H](CC1=CC(=C(C(=C1SC[C@H](C(=O)NCC(=O)O)NC(=O)CC[C@@H](C(=O)O)N)O)O)SC[C@H](C(=O)NCC(=O)O)NC(=O)CC[C@@H](C(=O)O)N)NC

> <PUBCHEM_CACTVS_TPSA>
421

> <PUBCHEM_MONOISOTOPIC_WEIGHT>
791.24659148

> <PUBCHEM_TOTAL_CHARGE>
0

> <PUBCHEM_HEAVY_ATOM_COUNT>
53

> <PUBCHEM_ATOM_DEF_STEREO_COUNT>
5

> <PUBCHEM_ATOM_UDEF_STEREO_COUNT>
0

> <PUBCHEM_BOND_DEF_STEREO_COUNT>
0

> <PUBCHEM_BOND_UDEF_STEREO_COUNT>
0

> <PUBCHEM_ISOTOPIC_ATOM_COUNT>
0

> <PUBCHEM_COMPONENT_COUNT>
1

> <PUBCHEM_CACTVS_TAUTO_COUNT>
-1

> <PUBCHEM_COORDINATE_TYPE>
1
5
255

> <PUBCHEM_BONDANNOTATIONS>
25  17  5
29  18  5
34  19  6
46  22  6
47  23  5
26  27  8
26  28  8
27  33  8
28  31  8
31  35  8
33  35  8

$$$$
