 
  -OEChem-10192104192D

 64 66  0     1  0  0  0  0  0999 V2000
    6.0010    1.0000    0.0000 O   0  0  0  0  0  0  0  0  0  0  0  0
    4.2690    1.0000    0.0000 O   0  0  0  0  0  0  0  0  0  0  0  0
    6.8671    3.5000    0.0000 O   0  0  0  0  0  0  0  0  0  0  0  0
    4.2690    2.0000    0.0000 O   0  0  0  0  0  0  0  0  0  0  0  0
    6.0010   -1.0000    0.0000 O   0  0  0  0  0  0  0  0  0  0  0  0
    2.5369   -1.0000    0.0000 O   0  0  0  0  0  0  0  0  0  0  0  0
    6.0010    5.0000    0.0000 O   0  0  0  0  0  0  0  0  0  0  0  0
    8.5991    2.5000    0.0000 O   0  0  0  0  0  0  0  0  0  0  0  0
    2.5369    2.0000    0.0000 O   0  0  0  0  0  0  0  0  0  0  0  0
    2.5369   -2.0000    0.0000 O   0  0  0  0  0  0  0  0  0  0  0  0
    5.1350    5.5000    0.0000 O   0  0  0  0  0  0  0  0  0  0  0  0
    4.2690   -2.0000    0.0000 N   0  0  0  0  0  0  0  0  0  0  0  0
    4.2690    4.0000    0.0000 N   0  0  0  0  0  0  0  0  0  0  0  0
    6.0010    2.0000    0.0000 C   0  0  1  0  0  0  0  0  0  0  0  0
    4.2690   -1.0000    0.0000 C   0  0  2  0  0  0  0  0  0  0  0  0
    5.1350    2.5000    0.0000 C   0  0  1  0  0  0  0  0  0  0  0  0
    5.1350    0.5000    0.0000 C   0  0  2  0  0  0  0  0  0  0  0  0
    5.1350   -0.5000    0.0000 C   0  0  2  0  0  0  0  0  0  0  0  0
    6.8671    2.5000    0.0000 C   0  0  1  0  0  0  0  0  0  0  0  0
    3.4030   -0.5000    0.0000 C   0  0  2  0  0  0  0  0  0  0  0  0
    5.1350    3.5000    0.0000 C   0  0  2  0  0  0  0  0  0  0  0  0
    3.4030    0.5000    0.0000 C   0  0  1  0  0  0  0  0  0  0  0  0
    6.0010    4.0000    0.0000 C   0  0  1  0  0  0  0  0  0  0  0  0
    7.7331    2.0000    0.0000 C   0  0  0  0  0  0  0  0  0  0  0  0
    2.5369    1.0000    0.0000 C   0  0  0  0  0  0  0  0  0  0  0  0
    3.4030   -2.5000    0.0000 C   0  0  0  0  0  0  0  0  0  0  0  0
    4.2690    5.0000    0.0000 C   0  0  0  0  0  0  0  0  0  0  0  0
    3.4030   -3.5000    0.0000 C   0  0  0  0  0  0  0  0  0  0  0  0
    3.4030    5.5000    0.0000 C   0  0  0  0  0  0  0  0  0  0  0  0
    4.2690   -4.0000    0.0000 C   0  0  0  0  0  0  0  0  0  0  0  0
    2.5369   -4.0000    0.0000 C   0  0  0  0  0  0  0  0  0  0  0  0
    4.2690   -5.0000    0.0000 C   0  0  0  0  0  0  0  0  0  0  0  0
    2.5369   -5.0000    0.0000 C   0  0  0  0  0  0  0  0  0  0  0  0
    3.4030   -5.5000    0.0000 C   0  0  0  0  0  0  0  0  0  0  0  0
    6.5380    1.6900    0.0000 H   0  0  0  0  0  0  0  0  0  0  0  0
    3.7320   -1.3100    0.0000 H   0  0  0  0  0  0  0  0  0  0  0  0
    5.1350    1.8800    0.0000 H   0  0  0  0  0  0  0  0  0  0  0  0
    5.1350    1.1200    0.0000 H   0  0  0  0  0  0  0  0  0  0  0  0
    5.1350   -1.1200    0.0000 H   0  0  0  0  0  0  0  0  0  0  0  0
    7.4040    2.8100    0.0000 H   0  0  0  0  0  0  0  0  0  0  0  0
    3.4030   -1.1200    0.0000 H   0  0  0  0  0  0  0  0  0  0  0  0
    5.1350    4.1200    0.0000 H   0  0  0  0  0  0  0  0  0  0  0  0
    3.4030    1.1200    0.0000 H   0  0  0  0  0  0  0  0  0  0  0  0
    5.4641    4.3100    0.0000 H   0  0  0  0  0  0  0  0  0  0  0  0
    7.3346    1.5250    0.0000 H   0  0  0  0  0  0  0  0  0  0  0  0
    8.1316    1.5250    0.0000 H   0  0  0  0  0  0  0  0  0  0  0  0
    4.8059   -2.3100    0.0000 H   0  0  0  0  0  0  0  0  0  0  0  0
    1.9264    1.1077    0.0000 H   0  0  0  0  0  0  0  0  0  0  0  0
    2.3249    0.4174    0.0000 H   0  0  0  0  0  0  0  0  0  0  0  0
    3.7320    3.6900    0.0000 H   0  0  0  0  0  0  0  0  0  0  0  0
    3.7320    2.3100    0.0000 H   0  0  0  0  0  0  0  0  0  0  0  0
    6.5380   -0.6900    0.0000 H   0  0  0  0  0  0  0  0  0  0  0  0
    2.0000   -0.6900    0.0000 H   0  0  0  0  0  0  0  0  0  0  0  0
    6.5380    5.3100    0.0000 H   0  0  0  0  0  0  0  0  0  0  0  0
    9.1360    2.1900    0.0000 H   0  0  0  0  0  0  0  0  0  0  0  0
    2.0000    2.3100    0.0000 H   0  0  0  0  0  0  0  0  0  0  0  0
    3.7130    6.0369    0.0000 H   0  0  0  0  0  0  0  0  0  0  0  0
    2.8660    5.8100    0.0000 H   0  0  0  0  0  0  0  0  0  0  0  0
    3.0930    4.9631    0.0000 H   0  0  0  0  0  0  0  0  0  0  0  0
    4.8059   -3.6900    0.0000 H   0  0  0  0  0  0  0  0  0  0  0  0
    2.0000   -3.6900    0.0000 H   0  0  0  0  0  0  0  0  0  0  0  0
    4.8059   -5.3100    0.0000 H   0  0  0  0  0  0  0  0  0  0  0  0
    2.0000   -5.3100    0.0000 H   0  0  0  0  0  0  0  0  0  0  0  0
    3.4030   -6.1200    0.0000 H   0  0  0  0  0  0  0  0  0  0  0  0
 14  1  1  1  0  0  0
 17  1  1  1  0  0  0
  2 17  1  0  0  0  0
  2 22  1  0  0  0  0
  3 19  1  0  0  0  0
  3 23  1  0  0  0  0
 16  4  1  6  0  0  0
  4 51  1  0  0  0  0
 18  5  1  6  0  0  0
  5 52  1  0  0  0  0
 20  6  1  1  0  0  0
  6 53  1  0  0  0  0
 23  7  1  6  0  0  0
  7 54  1  0  0  0  0
  8 24  1  0  0  0  0
  8 55  1  0  0  0  0
  9 25  1  0  0  0  0
  9 56  1  0  0  0  0
 10 26  2  0  0  0  0
 11 27  2  0  0  0  0
 15 12  1  1  0  0  0
 12 26  1  0  0  0  0
 12 47  1  0  0  0  0
 21 13  1  1  0  0  0
 13 27  1  0  0  0  0
 13 50  1  0  0  0  0
 14 16  1  0  0  0  0
 14 19  1  0  0  0  0
 14 35  1  0  0  0  0
 15 18  1  0  0  0  0
 15 20  1  0  0  0  0
 15 36  1  0  0  0  0
 16 21  1  0  0  0  0
 16 37  1  0  0  0  0
 17 18  1  0  0  0  0
 17 38  1  0  0  0  0
 18 39  1  0  0  0  0
 19 24  1  6  0  0  0
 19 40  1  0  0  0  0
 20 22  1  0  0  0  0
 20 41  1  0  0  0  0
 21 23  1  0  0  0  0
 21 42  1  0  0  0  0
 22 25  1  1  0  0  0
 22 43  1  0  0  0  0
 23 44  1  0  0  0  0
 24 45  1  0  0  0  0
 24 46  1  0  0  0  0
 25 48  1  0  0  0  0
 25 49  1  0  0  0  0
 26 28  1  0  0  0  0
 27 29  1  0  0  0  0
 28 30  2  0  0  0  0
 28 31  1  0  0  0  0
 29 57  1  0  0  0  0
 29 58  1  0  0  0  0
 29 59  1  0  0  0  0
 30 32  1  0  0  0  0
 30 60  1  0  0  0  0
 31 33  2  0  0  0  0
 31 61  1  0  0  0  0
 32 34  2  0  0  0  0
 32 62  1  0  0  0  0
 33 34  1  0  0  0  0
 33 63  1  0  0  0  0
 34 64  1  0  0  0  0
M  END
> <PUBCHEM_COMPOUND_CID>
72199541

> <PUBCHEM_COMPOUND_CANONICALIZED>
1

> <PUBCHEM_CACTVS_COMPLEXITY>
692

> <PUBCHEM_CACTVS_HBOND_ACCEPTOR>
11

> <PUBCHEM_CACTVS_HBOND_DONOR>
8

> <PUBCHEM_CACTVS_ROTATABLE_BOND>
7

> <PUBCHEM_CACTVS_SUBSKEYS>
AAADceB7PAAAAAAAAAAAAAAAAAAAAAAAAAA0SIAAAAAAAAABAAAAHgAQCAAADDzxmAcyCILABgCIAiFSEACCAAAkAAAIiIEIBMgbMDKAlRGnYQhnlgCfiYf4+A+OAAAAAAAAAAAAAAAAAAAAAAAAAAAAAA==

> <PUBCHEM_IUPAC_OPENEYE_NAME>
N-[(2S,3R,4S,5R,6R)-2-[(2R,3S,4R,5R,6R)-5-acetamido-4,6-dihydroxy-2-(hydroxymethyl)tetrahydropyran-3-yl]oxy-3,5-dihydroxy-6-(hydroxymethyl)tetrahydropyran-4-yl]benzamide

> <PUBCHEM_IUPAC_CAS_NAME>
N-[(2S,3R,4S,5R,6R)-2-[[(2R,3S,4R,5R,6R)-5-acetamido-4,6-dihydroxy-2-(hydroxymethyl)-3-oxanyl]oxy]-3,5-dihydroxy-6-(hydroxymethyl)-4-oxanyl]benzamide

> <PUBCHEM_IUPAC_NAME_MARKUP>
<I>N</I>-[(2<I>S</I>,3<I>R</I>,4<I>S</I>,5<I>R</I>,6<I>R</I>)-2-[(2<I>R</I>,3<I>S</I>,4<I>R</I>,5<I>R</I>,6<I>R</I>)-5-acetamido-4,6-dihydroxy-2-(hydroxymethyl)oxan-3-yl]oxy-3,5-dihydroxy-6-(hydroxymethyl)oxan-4-yl]benzamide

> <PUBCHEM_IUPAC_NAME>
N-[(2S,3R,4S,5R,6R)-2-[(2R,3S,4R,5R,6R)-5-acetamido-4,6-dihydroxy-2-(hydroxymethyl)oxan-3-yl]oxy-3,5-dihydroxy-6-(hydroxymethyl)oxan-4-yl]benzamide

> <PUBCHEM_IUPAC_SYSTEMATIC_NAME>
N-[(2S,3R,4S,5R,6R)-2-[(2R,3S,4R,5R,6R)-5-acetamido-2-(hydroxymethyl)-4,6-bis(oxidanyl)oxan-3-yl]oxy-6-(hydroxymethyl)-3,5-bis(oxidanyl)oxan-4-yl]benzamide

> <PUBCHEM_IUPAC_TRADITIONAL_NAME>
N-[(2S,3R,4S,5R,6R)-2-[(2R,3S,4R,5R,6R)-5-acetamido-4,6-dihydroxy-2-methylol-tetrahydropyran-3-yl]oxy-3,5-dihydroxy-6-methylol-tetrahydropyran-4-yl]benzamide

> <PUBCHEM_IUPAC_INCHI>
InChI=1S/C21H30N2O11/c1-9(26)22-14-16(28)18(12(8-25)32-20(14)31)34-21-17(29)13(15(27)11(7-24)33-21)23-19(30)10-5-3-2-4-6-10/h2-6,11-18,20-21,24-25,27-29,31H,7-8H2,1H3,(H,22,26)(H,23,30)/t11-,12-,13+,14-,15+,16-,17-,18-,20-,21+/m1/s1

> <PUBCHEM_IUPAC_INCHIKEY>
JFFBUTBBFNFRHC-QBTCGTJASA-N

> <PUBCHEM_XLOGP3_AA>
-3.1

> <PUBCHEM_EXACT_MASS>
486.18495978

> <PUBCHEM_MOLECULAR_FORMULA>
C21H30N2O11

> <PUBCHEM_MOLECULAR_WEIGHT>
486.5

> <PUBCHEM_OPENEYE_CAN_SMILES>
CC(=O)NC1C(C(C(OC1O)CO)OC2C(C(C(C(O2)CO)O)NC(=O)C3=CC=CC=C3)O)O

> <PUBCHEM_OPENEYE_ISO_SMILES>
CC(=O)N[C@@H]1[C@H]([C@@H]([C@H](O[C@H]1O)CO)O[C@H]2[C@@H]([C@H]([C@H]([C@H](O2)CO)O)NC(=O)C3=CC=CC=C3)O)O

> <PUBCHEM_CACTVS_TPSA>
207

> <PUBCHEM_MONOISOTOPIC_WEIGHT>
486.18495978

> <PUBCHEM_TOTAL_CHARGE>
0

> <PUBCHEM_HEAVY_ATOM_COUNT>
34

> <PUBCHEM_ATOM_DEF_STEREO_COUNT>
10

> <PUBCHEM_ATOM_UDEF_STEREO_COUNT>
0

> <PUBCHEM_BOND_DEF_STEREO_COUNT>
0

> <PUBCHEM_BOND_UDEF_STEREO_COUNT>
0

> <PUBCHEM_ISOTOPIC_ATOM_COUNT>
0

> <PUBCHEM_COMPONENT_COUNT>
1

> <PUBCHEM_CACTVS_TAUTO_COUNT>
-1

> <PUBCHEM_COORDINATE_TYPE>
1
5
255

> <PUBCHEM_BONDANNOTATIONS>
14  1  5
17  1  5
15  12  5
21  13  5
19  24  6
22  25  5
28  30  8
28  31  8
30  32  8
31  33  8
32  34  8
33  34  8
16  4  6
18  5  6
20  6  5
23  7  6

$$$$
