 
  -OEChem-10192103312D

 53 55  0     1  0  0  0  0  0999 V2000
    3.8660   -2.4205    0.0000 S   0  0  0  0  0  0  0  0  0  0  0  0
    7.6888   -1.2134    0.0000 S   0  0  0  0  0  0  0  0  0  0  0  0
    3.3660   -1.5545    0.0000 O   0  0  0  0  0  0  0  0  0  0  0  0
    4.3660   -3.2866    0.0000 O   0  0  0  0  0  0  0  0  0  0  0  0
    7.1888   -2.0795    0.0000 O   0  0  0  0  0  0  0  0  0  0  0  0
    8.1888   -0.3474    0.0000 O   0  0  0  0  0  0  0  0  0  0  0  0
    4.7320   -1.9205    0.0000 N   0  0  0  0  0  0  0  0  0  0  0  0
    6.8228   -0.7134    0.0000 N   0  0  3  0  0  0  0  0  0  0  0  0
    7.6888    1.7866    0.0000 N   0  0  0  0  0  0  0  0  0  0  0  0
    3.0000   -2.9205    0.0000 C   0  0  0  0  0  0  0  0  0  0  0  0
    2.0000   -2.9205    0.0000 C   0  0  0  0  0  0  0  0  0  0  0  0
    2.5000   -3.7866    0.0000 C   0  0  0  0  0  0  0  0  0  0  0  0
    5.9568   -1.2134    0.0000 C   0  0  0  0  0  0  0  0  0  0  0  0
    4.9909   -0.9546    0.0000 C   0  0  0  0  0  0  0  0  0  0  0  0
    5.6980   -2.1794    0.0000 C   0  0  0  0  0  0  0  0  0  0  0  0
    6.8228    0.2866    0.0000 C   0  0  0  0  0  0  0  0  0  0  0  0
    7.6888    0.7866    0.0000 C   0  0  0  0  0  0  0  0  0  0  0  0
    8.5549   -1.7134    0.0000 C   0  0  0  0  0  0  0  0  0  0  0  0
    6.8228    2.2866    0.0000 C   0  0  0  0  0  0  0  0  0  0  0  0
    8.5549    2.2866    0.0000 C   0  0  0  0  0  0  0  0  0  0  0  0
    6.8228    3.2866    0.0000 C   0  0  0  0  0  0  0  0  0  0  0  0
    8.5549    3.2866    0.0000 C   0  0  0  0  0  0  0  0  0  0  0  0
    7.6888    3.7866    0.0000 C   0  0  0  0  0  0  0  0  0  0  0  0
    8.5549   -2.7134    0.0000 C   0  0  0  0  0  0  0  0  0  0  0  0
    2.8395   -2.3217    0.0000 H   0  0  0  0  0  0  0  0  0  0  0  0
    1.8923   -2.3100    0.0000 H   0  0  0  0  0  0  0  0  0  0  0  0
    1.4174   -3.1326    0.0000 H   0  0  0  0  0  0  0  0  0  0  0  0
    2.0250   -4.1851    0.0000 H   0  0  0  0  0  0  0  0  0  0  0  0
    2.9750   -4.1851    0.0000 H   0  0  0  0  0  0  0  0  0  0  0  0
    5.8759   -0.5987    0.0000 H   0  0  0  0  0  0  0  0  0  0  0  0
    5.1513   -0.3557    0.0000 H   0  0  0  0  0  0  0  0  0  0  0  0
    4.3920   -0.7941    0.0000 H   0  0  0  0  0  0  0  0  0  0  0  0
    5.5375   -2.7782    0.0000 H   0  0  0  0  0  0  0  0  0  0  0  0
    6.2968   -2.3398    0.0000 H   0  0  0  0  0  0  0  0  0  0  0  0
    6.6108    0.8692    0.0000 H   0  0  0  0  0  0  0  0  0  0  0  0
    6.2122    0.1789    0.0000 H   0  0  0  0  0  0  0  0  0  0  0  0
    7.9009    0.2040    0.0000 H   0  0  0  0  0  0  0  0  0  0  0  0
    8.2994    0.8942    0.0000 H   0  0  0  0  0  0  0  0  0  0  0  0
    9.1654   -1.8211    0.0000 H   0  0  0  0  0  0  0  0  0  0  0  0
    8.7669   -1.1308    0.0000 H   0  0  0  0  0  0  0  0  0  0  0  0
    6.2122    2.3942    0.0000 H   0  0  0  0  0  0  0  0  0  0  0  0
    6.6108    1.7040    0.0000 H   0  0  0  0  0  0  0  0  0  0  0  0
    8.7669    1.7040    0.0000 H   0  0  0  0  0  0  0  0  0  0  0  0
    9.1654    2.3942    0.0000 H   0  0  0  0  0  0  0  0  0  0  0  0
    6.6108    3.8692    0.0000 H   0  0  0  0  0  0  0  0  0  0  0  0
    6.2122    3.1789    0.0000 H   0  0  0  0  0  0  0  0  0  0  0  0
    9.1654    3.1789    0.0000 H   0  0  0  0  0  0  0  0  0  0  0  0
    8.7669    3.8692    0.0000 H   0  0  0  0  0  0  0  0  0  0  0  0
    8.0874    4.2615    0.0000 H   0  0  0  0  0  0  0  0  0  0  0  0
    7.2903    4.2615    0.0000 H   0  0  0  0  0  0  0  0  0  0  0  0
    7.9349   -2.7134    0.0000 H   0  0  0  0  0  0  0  0  0  0  0  0
    8.5549   -3.3334    0.0000 H   0  0  0  0  0  0  0  0  0  0  0  0
    9.1749   -2.7134    0.0000 H   0  0  0  0  0  0  0  0  0  0  0  0
  1  3  2  0  0  0  0
  1  4  2  0  0  0  0
  1  7  1  0  0  0  0
  1 10  1  0  0  0  0
  2  5  2  0  0  0  0
  2  6  2  0  0  0  0
  2  8  1  0  0  0  0
  2 18  1  0  0  0  0
  7 14  1  0  0  0  0
  7 15  1  0  0  0  0
  8 13  1  0  0  0  0
  8 16  1  0  0  0  0
  9 17  1  0  0  0  0
  9 19  1  0  0  0  0
  9 20  1  0  0  0  0
 10 11  1  0  0  0  0
 10 12  1  0  0  0  0
 10 25  1  0  0  0  0
 11 12  1  0  0  0  0
 11 26  1  0  0  0  0
 11 27  1  0  0  0  0
 12 28  1  0  0  0  0
 12 29  1  0  0  0  0
 13 14  1  0  0  0  0
 13 15  1  0  0  0  0
 13 30  1  0  0  0  0
 14 31  1  0  0  0  0
 14 32  1  0  0  0  0
 15 33  1  0  0  0  0
 15 34  1  0  0  0  0
 16 17  1  0  0  0  0
 16 35  1  0  0  0  0
 16 36  1  0  0  0  0
 17 37  1  0  0  0  0
 17 38  1  0  0  0  0
 18 24  1  0  0  0  0
 18 39  1  0  0  0  0
 18 40  1  0  0  0  0
 19 21  1  0  0  0  0
 19 41  1  0  0  0  0
 19 42  1  0  0  0  0
 20 22  1  0  0  0  0
 20 43  1  0  0  0  0
 20 44  1  0  0  0  0
 21 23  1  0  0  0  0
 21 45  1  0  0  0  0
 21 46  1  0  0  0  0
 22 23  1  0  0  0  0
 22 47  1  0  0  0  0
 22 48  1  0  0  0  0
 23 49  1  0  0  0  0
 23 50  1  0  0  0  0
 24 51  1  0  0  0  0
 24 52  1  0  0  0  0
 24 53  1  0  0  0  0
M  END
> <PUBCHEM_COMPOUND_CID>
137959919

> <PUBCHEM_COMPOUND_CANONICALIZED>
1

> <PUBCHEM_CACTVS_COMPLEXITY>
623

> <PUBCHEM_CACTVS_HBOND_ACCEPTOR>
7

> <PUBCHEM_CACTVS_HBOND_DONOR>
0

> <PUBCHEM_CACTVS_ROTATABLE_BOND>
8

> <PUBCHEM_CACTVS_SUBSKEYS>
AAADceBzOABgAAAAAAAAAAAAGABYAAAAAAAsAAAAAAAAAAAAAAAAHAQAQAAACCjFQASCAAMAAAIAAAAAAHBAAAAAAAAAAAAIAAAAQAIAgAAUAAAAAACAAAAQAAAAAAAAAAAAAAAAAAAAAAAAAAAAAAAAAA==

> <PUBCHEM_IUPAC_OPENEYE_NAME>
N-(1-cyclopropylsulfonylazetidin-3-yl)-N-[2-(1-piperidyl)ethyl]ethanesulfonamide

> <PUBCHEM_IUPAC_CAS_NAME>
N-(1-cyclopropylsulfonyl-3-azetidinyl)-N-[2-(1-piperidinyl)ethyl]ethanesulfonamide

> <PUBCHEM_IUPAC_NAME_MARKUP>
<I>N</I>-(1-cyclopropylsulfonylazetidin-3-yl)-<I>N</I>-(2-piperidin-1-ylethyl)ethanesulfonamide

> <PUBCHEM_IUPAC_NAME>
N-(1-cyclopropylsulfonylazetidin-3-yl)-N-(2-piperidin-1-ylethyl)ethanesulfonamide

> <PUBCHEM_IUPAC_SYSTEMATIC_NAME>
N-(1-cyclopropylsulfonylazetidin-3-yl)-N-(2-piperidin-1-ylethyl)ethanesulfonamide

> <PUBCHEM_IUPAC_TRADITIONAL_NAME>
N-(1-cyclopropylsulfonylazetidin-3-yl)-N-(2-piperidinoethyl)ethanesulfonamide

> <PUBCHEM_IUPAC_INCHI>
InChI=1S/C15H29N3O4S2/c1-2-23(19,20)18(11-10-16-8-4-3-5-9-16)14-12-17(13-14)24(21,22)15-6-7-15/h14-15H,2-13H2,1H3

> <PUBCHEM_IUPAC_INCHIKEY>
XDJTYFRSNMWIAG-UHFFFAOYSA-N

> <PUBCHEM_XLOGP3_AA>
0.4

> <PUBCHEM_EXACT_MASS>
379.15994876

> <PUBCHEM_MOLECULAR_FORMULA>
C15H29N3O4S2

> <PUBCHEM_MOLECULAR_WEIGHT>
379.5

> <PUBCHEM_OPENEYE_CAN_SMILES>
CCS(=O)(=O)N(CCN1CCCCC1)C2CN(C2)S(=O)(=O)C3CC3

> <PUBCHEM_OPENEYE_ISO_SMILES>
CCS(=O)(=O)N(CCN1CCCCC1)C2CN(C2)S(=O)(=O)C3CC3

> <PUBCHEM_CACTVS_TPSA>
94.8

> <PUBCHEM_MONOISOTOPIC_WEIGHT>
379.15994876

> <PUBCHEM_TOTAL_CHARGE>
0

> <PUBCHEM_HEAVY_ATOM_COUNT>
24

> <PUBCHEM_ATOM_DEF_STEREO_COUNT>
0

> <PUBCHEM_ATOM_UDEF_STEREO_COUNT>
0

> <PUBCHEM_BOND_DEF_STEREO_COUNT>
0

> <PUBCHEM_BOND_UDEF_STEREO_COUNT>
0

> <PUBCHEM_ISOTOPIC_ATOM_COUNT>
0

> <PUBCHEM_COMPONENT_COUNT>
1

> <PUBCHEM_CACTVS_TAUTO_COUNT>
-1

> <PUBCHEM_COORDINATE_TYPE>
1
5
255

$$$$
