 
  -OEChem-10192103452D

 92 91  0     1  0  0  0  0  0999 V2000
    8.9282    3.6550    0.0000 O   0  0  0  0  0  0  0  0  0  0  0  0
   12.3923    3.6550    0.0000 O   0  0  0  0  0  0  0  0  0  0  0  0
   11.5263    5.1550    0.0000 O   0  0  0  0  0  0  0  0  0  0  0  0
   14.1244    3.6550    0.0000 O   0  0  0  0  0  0  0  0  0  0  0  0
    8.0622    5.1550    0.0000 O   0  0  0  0  0  0  0  0  0  0  0  0
    6.3301   -4.8450    0.0000 O   0  0  0  0  0  0  0  0  0  0  0  0
    5.4641   -3.3450    0.0000 O   0  0  0  0  0  0  0  0  0  0  0  0
   14.9904    5.1550    0.0000 O   0  0  0  0  0  0  0  0  0  0  0  0
    9.7942    1.1550    0.0000 C   0  0  0  0  0  0  0  0  0  0  0  0
    9.7942    2.1550    0.0000 C   0  0  0  0  0  0  0  0  0  0  0  0
    8.9282    0.6550    0.0000 C   0  0  0  0  0  0  0  0  0  0  0  0
   10.6603    2.6550    0.0000 C   0  0  0  0  0  0  0  0  0  0  0  0
    8.9282   -0.3450    0.0000 C   0  0  0  0  0  0  0  0  0  0  0  0
   10.6603    3.6550    0.0000 C   0  0  3  0  0  0  0  0  0  0  0  0
    8.0622   -0.8450    0.0000 C   0  0  0  0  0  0  0  0  0  0  0  0
    8.0622   -1.8450    0.0000 C   0  0  0  0  0  0  0  0  0  0  0  0
    9.7942    4.1550    0.0000 C   0  0  0  0  0  0  0  0  0  0  0  0
    7.1962   -2.3450    0.0000 C   0  0  0  0  0  0  0  0  0  0  0  0
   11.5263    4.1550    0.0000 C   0  0  0  0  0  0  0  0  0  0  0  0
    5.4641    3.6550    0.0000 C   0  0  0  0  0  0  0  0  0  0  0  0
    6.3301    4.1550    0.0000 C   0  0  0  0  0  0  0  0  0  0  0  0
    7.1962   -3.3450    0.0000 C   0  0  0  0  0  0  0  0  0  0  0  0
    4.5981    4.1550    0.0000 C   0  0  0  0  0  0  0  0  0  0  0  0
    7.1962    3.6550    0.0000 C   0  0  0  0  0  0  0  0  0  0  0  0
    3.7320    3.6550    0.0000 C   0  0  0  0  0  0  0  0  0  0  0  0
    8.0622    4.1550    0.0000 C   0  0  0  0  0  0  0  0  0  0  0  0
   17.5885    3.6550    0.0000 C   0  0  0  0  0  0  0  0  0  0  0  0
   18.4545    4.1550    0.0000 C   0  0  0  0  0  0  0  0  0  0  0  0
   16.7224    4.1550    0.0000 C   0  0  0  0  0  0  0  0  0  0  0  0
   19.3205    3.6550    0.0000 C   0  0  0  0  0  0  0  0  0  0  0  0
    2.8660    4.1550    0.0000 C   0  0  0  0  0  0  0  0  0  0  0  0
   15.8564    3.6550    0.0000 C   0  0  0  0  0  0  0  0  0  0  0  0
   20.1865    4.1550    0.0000 C   0  0  0  0  0  0  0  0  0  0  0  0
   13.2583    4.1550    0.0000 C   0  0  0  0  0  0  0  0  0  0  0  0
    6.3301   -3.8450    0.0000 C   0  0  0  0  0  0  0  0  0  0  0  0
    2.0000    3.6550    0.0000 C   0  0  0  0  0  0  0  0  0  0  0  0
   14.9904    4.1550    0.0000 C   0  0  0  0  0  0  0  0  0  0  0  0
   21.0526    3.6550    0.0000 C   0  0  0  0  0  0  0  0  0  0  0  0
   10.0063    0.5724    0.0000 H   0  0  0  0  0  0  0  0  0  0  0  0
   10.4048    1.2627    0.0000 H   0  0  0  0  0  0  0  0  0  0  0  0
    9.5822    2.7376    0.0000 H   0  0  0  0  0  0  0  0  0  0  0  0
    9.1836    2.0473    0.0000 H   0  0  0  0  0  0  0  0  0  0  0  0
    8.7162    1.2376    0.0000 H   0  0  0  0  0  0  0  0  0  0  0  0
    8.3176    0.5473    0.0000 H   0  0  0  0  0  0  0  0  0  0  0  0
   10.8723    2.0724    0.0000 H   0  0  0  0  0  0  0  0  0  0  0  0
   11.2708    2.7627    0.0000 H   0  0  0  0  0  0  0  0  0  0  0  0
    9.1403   -0.9276    0.0000 H   0  0  0  0  0  0  0  0  0  0  0  0
    9.5388   -0.2373    0.0000 H   0  0  0  0  0  0  0  0  0  0  0  0
   11.1972    3.3450    0.0000 H   0  0  0  0  0  0  0  0  0  0  0  0
    7.8501   -0.2624    0.0000 H   0  0  0  0  0  0  0  0  0  0  0  0
    7.4516   -0.9527    0.0000 H   0  0  0  0  0  0  0  0  0  0  0  0
    8.2742   -2.4276    0.0000 H   0  0  0  0  0  0  0  0  0  0  0  0
    8.6728   -1.7373    0.0000 H   0  0  0  0  0  0  0  0  0  0  0  0
   10.1928    4.6300    0.0000 H   0  0  0  0  0  0  0  0  0  0  0  0
    9.3957    4.6300    0.0000 H   0  0  0  0  0  0  0  0  0  0  0  0
    6.9841   -1.7624    0.0000 H   0  0  0  0  0  0  0  0  0  0  0  0
    6.5856   -2.4527    0.0000 H   0  0  0  0  0  0  0  0  0  0  0  0
    5.0656    3.1800    0.0000 H   0  0  0  0  0  0  0  0  0  0  0  0
    5.8626    3.1800    0.0000 H   0  0  0  0  0  0  0  0  0  0  0  0
    6.7287    4.6300    0.0000 H   0  0  0  0  0  0  0  0  0  0  0  0
    5.9316    4.6300    0.0000 H   0  0  0  0  0  0  0  0  0  0  0  0
    7.4082   -3.9276    0.0000 H   0  0  0  0  0  0  0  0  0  0  0  0
    7.8067   -3.2373    0.0000 H   0  0  0  0  0  0  0  0  0  0  0  0
    4.9966    4.6300    0.0000 H   0  0  0  0  0  0  0  0  0  0  0  0
    4.1996    4.6300    0.0000 H   0  0  0  0  0  0  0  0  0  0  0  0
    6.7976    3.1800    0.0000 H   0  0  0  0  0  0  0  0  0  0  0  0
    7.5947    3.1800    0.0000 H   0  0  0  0  0  0  0  0  0  0  0  0
    3.3335    3.1800    0.0000 H   0  0  0  0  0  0  0  0  0  0  0  0
    4.1306    3.1800    0.0000 H   0  0  0  0  0  0  0  0  0  0  0  0
   17.1899    3.1800    0.0000 H   0  0  0  0  0  0  0  0  0  0  0  0
   17.9870    3.1800    0.0000 H   0  0  0  0  0  0  0  0  0  0  0  0
   18.8530    4.6300    0.0000 H   0  0  0  0  0  0  0  0  0  0  0  0
   18.0560    4.6300    0.0000 H   0  0  0  0  0  0  0  0  0  0  0  0
   17.1210    4.6300    0.0000 H   0  0  0  0  0  0  0  0  0  0  0  0
   16.3239    4.6300    0.0000 H   0  0  0  0  0  0  0  0  0  0  0  0
   18.9220    3.1800    0.0000 H   0  0  0  0  0  0  0  0  0  0  0  0
   19.7190    3.1800    0.0000 H   0  0  0  0  0  0  0  0  0  0  0  0
    3.2646    4.6300    0.0000 H   0  0  0  0  0  0  0  0  0  0  0  0
    2.4675    4.6300    0.0000 H   0  0  0  0  0  0  0  0  0  0  0  0
   15.4579    3.1800    0.0000 H   0  0  0  0  0  0  0  0  0  0  0  0
   16.2549    3.1800    0.0000 H   0  0  0  0  0  0  0  0  0  0  0  0
   20.5851    4.6300    0.0000 H   0  0  0  0  0  0  0  0  0  0  0  0
   19.7880    4.6300    0.0000 H   0  0  0  0  0  0  0  0  0  0  0  0
   13.6569    4.6300    0.0000 H   0  0  0  0  0  0  0  0  0  0  0  0
   12.8598    4.6300    0.0000 H   0  0  0  0  0  0  0  0  0  0  0  0
    1.6900    4.1919    0.0000 H   0  0  0  0  0  0  0  0  0  0  0  0
    1.4631    3.3450    0.0000 H   0  0  0  0  0  0  0  0  0  0  0  0
    2.3100    3.1181    0.0000 H   0  0  0  0  0  0  0  0  0  0  0  0
   20.7426    3.1181    0.0000 H   0  0  0  0  0  0  0  0  0  0  0  0
   21.5895    3.3450    0.0000 H   0  0  0  0  0  0  0  0  0  0  0  0
   21.3626    4.1919    0.0000 H   0  0  0  0  0  0  0  0  0  0  0  0
    5.7932   -5.1550    0.0000 H   0  0  0  0  0  0  0  0  0  0  0  0
  1 17  1  0  0  0  0
  1 26  1  0  0  0  0
  2 19  1  0  0  0  0
  2 34  1  0  0  0  0
  3 19  2  0  0  0  0
  4 34  1  0  0  0  0
  4 37  1  0  0  0  0
  5 26  2  0  0  0  0
  6 35  1  0  0  0  0
  6 92  1  0  0  0  0
  7 35  2  0  0  0  0
  8 37  2  0  0  0  0
  9 10  1  0  0  0  0
  9 11  1  0  0  0  0
  9 39  1  0  0  0  0
  9 40  1  0  0  0  0
 10 12  1  0  0  0  0
 10 41  1  0  0  0  0
 10 42  1  0  0  0  0
 11 13  1  0  0  0  0
 11 43  1  0  0  0  0
 11 44  1  0  0  0  0
 12 14  1  0  0  0  0
 12 45  1  0  0  0  0
 12 46  1  0  0  0  0
 13 15  1  0  0  0  0
 13 47  1  0  0  0  0
 13 48  1  0  0  0  0
 14 17  1  0  0  0  0
 14 19  1  0  0  0  0
 14 49  1  0  0  0  0
 15 16  1  0  0  0  0
 15 50  1  0  0  0  0
 15 51  1  0  0  0  0
 16 18  1  0  0  0  0
 16 52  1  0  0  0  0
 16 53  1  0  0  0  0
 17 54  1  0  0  0  0
 17 55  1  0  0  0  0
 18 22  1  0  0  0  0
 18 56  1  0  0  0  0
 18 57  1  0  0  0  0
 20 21  1  0  0  0  0
 20 23  1  0  0  0  0
 20 58  1  0  0  0  0
 20 59  1  0  0  0  0
 21 24  1  0  0  0  0
 21 60  1  0  0  0  0
 21 61  1  0  0  0  0
 22 35  1  0  0  0  0
 22 62  1  0  0  0  0
 22 63  1  0  0  0  0
 23 25  1  0  0  0  0
 23 64  1  0  0  0  0
 23 65  1  0  0  0  0
 24 26  1  0  0  0  0
 24 66  1  0  0  0  0
 24 67  1  0  0  0  0
 25 31  1  0  0  0  0
 25 68  1  0  0  0  0
 25 69  1  0  0  0  0
 27 28  1  0  0  0  0
 27 29  1  0  0  0  0
 27 70  1  0  0  0  0
 27 71  1  0  0  0  0
 28 30  1  0  0  0  0
 28 72  1  0  0  0  0
 28 73  1  0  0  0  0
 29 32  1  0  0  0  0
 29 74  1  0  0  0  0
 29 75  1  0  0  0  0
 30 33  1  0  0  0  0
 30 76  1  0  0  0  0
 30 77  1  0  0  0  0
 31 36  1  0  0  0  0
 31 78  1  0  0  0  0
 31 79  1  0  0  0  0
 32 37  1  0  0  0  0
 32 80  1  0  0  0  0
 32 81  1  0  0  0  0
 33 38  1  0  0  0  0
 33 82  1  0  0  0  0
 33 83  1  0  0  0  0
 34 84  1  0  0  0  0
 34 85  1  0  0  0  0
 36 86  1  0  0  0  0
 36 87  1  0  0  0  0
 36 88  1  0  0  0  0
 38 89  1  0  0  0  0
 38 90  1  0  0  0  0
 38 91  1  0  0  0  0
M  END
> <PUBCHEM_COMPOUND_CID>
87660974

> <PUBCHEM_COMPOUND_CANONICALIZED>
1

> <PUBCHEM_CACTVS_COMPLEXITY>
619

> <PUBCHEM_CACTVS_HBOND_ACCEPTOR>
8

> <PUBCHEM_CACTVS_HBOND_DONOR>
1

> <PUBCHEM_CACTVS_ROTATABLE_BOND>
30

> <PUBCHEM_CACTVS_SUBSKEYS>
AAADcfB4PAAAAAAAAAAAAAAAAAAAAAAAAAAAAAAAAAAAAAAAAAAAGgAACAAADQCggAMCCAAABgAIAACQCAAAAAAAAAAAAAEAAAAQABYAAAAiQAAFIAAEAAGIyOCMAAAAAAAAAAAAAAAAAAAAAAAAAAAAAA==

> <PUBCHEM_IUPAC_OPENEYE_NAME>
12-(octanoyloxymethoxy)-11-(octanoyloxymethyl)-12-oxo-dodecanoic acid

> <PUBCHEM_IUPAC_CAS_NAME>
12-oxo-12-(1-oxooctoxymethoxy)-11-(1-oxooctoxymethyl)dodecanoic acid

> <PUBCHEM_IUPAC_NAME_MARKUP>
12-(octanoyloxymethoxy)-11-(octanoyloxymethyl)-12-oxododecanoic acid

> <PUBCHEM_IUPAC_NAME>
12-(octanoyloxymethoxy)-11-(octanoyloxymethyl)-12-oxododecanoic acid

> <PUBCHEM_IUPAC_SYSTEMATIC_NAME>
12-(octanoyloxymethoxy)-11-(octanoyloxymethyl)-12-oxidanylidene-dodecanoic acid

> <PUBCHEM_IUPAC_TRADITIONAL_NAME>
12-(caprylyloxymethoxy)-11-(caprylyloxymethyl)-12-keto-lauric acid

> <PUBCHEM_IUPAC_INCHI>
InChI=1S/C30H54O8/c1-3-5-7-12-18-22-28(33)36-24-26(20-16-14-10-9-11-15-17-21-27(31)32)30(35)38-25-37-29(34)23-19-13-8-6-4-2/h26H,3-25H2,1-2H3,(H,31,32)

> <PUBCHEM_IUPAC_INCHIKEY>
KQQNIPINWFHJIW-UHFFFAOYSA-N

> <PUBCHEM_XLOGP3_AA>
9.4

> <PUBCHEM_EXACT_MASS>
542.38186868

> <PUBCHEM_MOLECULAR_FORMULA>
C30H54O8

> <PUBCHEM_MOLECULAR_WEIGHT>
542.7

> <PUBCHEM_OPENEYE_CAN_SMILES>
CCCCCCCC(=O)OCC(CCCCCCCCCC(=O)O)C(=O)OCOC(=O)CCCCCCC

> <PUBCHEM_OPENEYE_ISO_SMILES>
CCCCCCCC(=O)OCC(CCCCCCCCCC(=O)O)C(=O)OCOC(=O)CCCCCCC

> <PUBCHEM_CACTVS_TPSA>
116

> <PUBCHEM_MONOISOTOPIC_WEIGHT>
542.38186868

> <PUBCHEM_TOTAL_CHARGE>
0

> <PUBCHEM_HEAVY_ATOM_COUNT>
38

> <PUBCHEM_ATOM_DEF_STEREO_COUNT>
0

> <PUBCHEM_ATOM_UDEF_STEREO_COUNT>
1

> <PUBCHEM_BOND_DEF_STEREO_COUNT>
0

> <PUBCHEM_BOND_UDEF_STEREO_COUNT>
0

> <PUBCHEM_ISOTOPIC_ATOM_COUNT>
0

> <PUBCHEM_COMPONENT_COUNT>
1

> <PUBCHEM_CACTVS_TAUTO_COUNT>
-1

> <PUBCHEM_COORDINATE_TYPE>
1
5
255

> <PUBCHEM_BONDANNOTATIONS>
14  12  3

$$$$
