 
  -OEChem-10192103342D

 22 21  0     0  0  0  0  0  0999 V2000
    7.7331    1.2500    0.0000 O   0  0  0  0  0  0  0  0  0  0  0  0
    2.5369    0.2500    0.0000 O   0  0  0  0  0  0  0  0  0  0  0  0
    3.4030   -1.2500    0.0000 O   0  0  0  0  0  0  0  0  0  0  0  0
    6.0010    0.2500    0.0000 C   0  0  0  0  0  0  0  0  0  0  0  0
    5.1350   -0.2500    0.0000 C   0  0  0  0  0  0  0  0  0  0  0  0
    6.8671   -0.2500    0.0000 C   0  0  0  0  0  0  0  0  0  0  0  0
    4.2690    0.2500    0.0000 C   0  0  0  0  0  0  0  0  0  0  0  0
    7.7331    0.2500    0.0000 C   0  0  0  0  0  0  0  0  0  0  0  0
    3.4030   -0.2500    0.0000 C   0  0  0  0  0  0  0  0  0  0  0  0
    8.5991   -0.2500    0.0000 C   0  0  0  0  0  0  0  0  0  0  0  0
    6.3996    0.7249    0.0000 H   0  0  0  0  0  0  0  0  0  0  0  0
    5.6025    0.7249    0.0000 H   0  0  0  0  0  0  0  0  0  0  0  0
    4.7365   -0.7249    0.0000 H   0  0  0  0  0  0  0  0  0  0  0  0
    5.5335   -0.7249    0.0000 H   0  0  0  0  0  0  0  0  0  0  0  0
    6.4685   -0.7249    0.0000 H   0  0  0  0  0  0  0  0  0  0  0  0
    7.2656   -0.7249    0.0000 H   0  0  0  0  0  0  0  0  0  0  0  0
    4.6675    0.7249    0.0000 H   0  0  0  0  0  0  0  0  0  0  0  0
    3.8705    0.7249    0.0000 H   0  0  0  0  0  0  0  0  0  0  0  0
    8.2891   -0.7869    0.0000 H   0  0  0  0  0  0  0  0  0  0  0  0
    9.1360   -0.5600    0.0000 H   0  0  0  0  0  0  0  0  0  0  0  0
    8.9091    0.2869    0.0000 H   0  0  0  0  0  0  0  0  0  0  0  0
    2.0000   -0.0600    0.0000 H   0  0  0  0  0  0  0  0  0  0  0  0
  1  8  2  0  0  0  0
  2  9  1  0  0  0  0
  2 22  1  0  0  0  0
  3  9  2  0  0  0  0
  4  5  1  0  0  0  0
  4  6  1  0  0  0  0
  4 11  1  0  0  0  0
  4 12  1  0  0  0  0
  5  7  1  0  0  0  0
  5 13  1  0  0  0  0
  5 14  1  0  0  0  0
  6  8  1  0  0  0  0
  6 15  1  0  0  0  0
  6 16  1  0  0  0  0
  7  9  1  0  0  0  0
  7 17  1  0  0  0  0
  7 18  1  0  0  0  0
  8 10  1  0  0  0  0
 10 19  1  0  0  0  0
 10 20  1  0  0  0  0
 10 21  1  0  0  0  0
M  END
> <PUBCHEM_COMPOUND_CID>
98810

> <PUBCHEM_COMPOUND_CANONICALIZED>
1

> <PUBCHEM_CACTVS_COMPLEXITY>
129

> <PUBCHEM_CACTVS_HBOND_ACCEPTOR>
3

> <PUBCHEM_CACTVS_HBOND_DONOR>
1

> <PUBCHEM_CACTVS_ROTATABLE_BOND>
5

> <PUBCHEM_CACTVS_SUBSKEYS>
AAADccBgMAAAAAAAAAAAAAAAAAAAAAAAAAAAAAAAAAAAAAAAAAAAGgAACAAACASAgAACCAAAAgAIAICQCAAAAAAAAAAAAAEAAAAAABIAAAAAQAAEAAAAAAGIyCCAAAAAAAAAAAAAAAAAAAAAAAAAAAAAAA==

> <PUBCHEM_IUPAC_OPENEYE_NAME>
6-oxoheptanoic acid

> <PUBCHEM_IUPAC_CAS_NAME>
6-oxoheptanoic acid

> <PUBCHEM_IUPAC_NAME_MARKUP>
6-oxoheptanoic acid

> <PUBCHEM_IUPAC_NAME>
6-oxoheptanoic acid

> <PUBCHEM_IUPAC_SYSTEMATIC_NAME>
6-oxidanylideneheptanoic acid

> <PUBCHEM_IUPAC_TRADITIONAL_NAME>
6-ketoenanthic acid

> <PUBCHEM_IUPAC_INCHI>
InChI=1S/C7H12O3/c1-6(8)4-2-3-5-7(9)10/h2-5H2,1H3,(H,9,10)

> <PUBCHEM_IUPAC_INCHIKEY>
IZOQMUVIDMLRDC-UHFFFAOYSA-N

> <PUBCHEM_XLOGP3>
0.2

> <PUBCHEM_EXACT_MASS>
144.078644241

> <PUBCHEM_MOLECULAR_FORMULA>
C7H12O3

> <PUBCHEM_MOLECULAR_WEIGHT>
144.17

> <PUBCHEM_OPENEYE_CAN_SMILES>
CC(=O)CCCCC(=O)O

> <PUBCHEM_OPENEYE_ISO_SMILES>
CC(=O)CCCCC(=O)O

> <PUBCHEM_CACTVS_TPSA>
54.4

> <PUBCHEM_MONOISOTOPIC_WEIGHT>
144.078644241

> <PUBCHEM_TOTAL_CHARGE>
0

> <PUBCHEM_HEAVY_ATOM_COUNT>
10

> <PUBCHEM_ATOM_DEF_STEREO_COUNT>
0

> <PUBCHEM_ATOM_UDEF_STEREO_COUNT>
0

> <PUBCHEM_BOND_DEF_STEREO_COUNT>
0

> <PUBCHEM_BOND_UDEF_STEREO_COUNT>
0

> <PUBCHEM_ISOTOPIC_ATOM_COUNT>
0

> <PUBCHEM_COMPONENT_COUNT>
1

> <PUBCHEM_CACTVS_TAUTO_COUNT>
6

> <PUBCHEM_COORDINATE_TYPE>
1
5
255

$$$$
