 
  -OEChem-10192103372D

 80 84  0     1  0  0  0  0  0999 V2000
    2.5357   -1.7504    0.0000 O   0  0  0  0  0  0  0  0  0  0  0  0
   11.5367    3.4464    0.0000 O   0  0  0  0  0  0  0  0  0  0  0  0
    4.3500   -3.5282    0.0000 O   0  0  0  0  0  0  0  0  0  0  0  0
   10.5929   -0.2222    0.0000 O   0  0  0  0  0  0  0  0  0  0  0  0
   12.1693    0.9862    0.0000 O   0  0  0  0  0  0  0  0  0  0  0  0
    5.2868   -0.2049    0.0000 C   0  0  2  0  0  0  0  0  0  0  0  0
    6.1968    0.3020    0.0000 C   0  0  2  0  0  0  0  0  0  0  0  0
    7.0628   -0.1980    0.0000 C   0  0  2  0  0  0  0  0  0  0  0  0
    5.2787   -1.2465    0.0000 C   0  0  2  0  0  0  0  0  0  0  0  0
    7.9288    1.3020    0.0000 C   0  0  2  0  0  0  0  0  0  0  0  0
    8.8228    1.8366    0.0000 C   0  0  2  0  0  0  0  0  0  0  0  0
    7.9288    0.3020    0.0000 C   0  0  0  0  0  0  0  0  0  0  0  0
    4.3433   -1.7962    0.0000 C   0  0  2  0  0  0  0  0  0  0  0  0
    7.0789   -1.2395    0.0000 C   0  0  0  0  0  0  0  0  0  0  0  0
    6.1968    1.3020    0.0000 C   0  0  0  0  0  0  0  0  0  0  0  0
    6.1808   -1.7673    0.0000 C   0  0  0  0  0  0  0  0  0  0  0  0
    4.3599    0.3592    0.0000 C   0  0  0  0  0  0  0  0  0  0  0  0
    7.0628    1.8020    0.0000 C   0  0  0  0  0  0  0  0  0  0  0  0
    9.7288    1.3228    0.0000 C   0  0  2  0  0  0  0  0  0  0  0  0
    3.4037   -1.2537    0.0000 C   0  0  1  0  0  0  0  0  0  0  0  0
    5.2945    0.7951    0.0000 C   0  0  0  0  0  0  0  0  0  0  0  0
    3.4120   -0.1687    0.0000 C   0  0  0  0  0  0  0  0  0  0  0  0
   10.6726    1.8580    0.0000 C   0  0  2  0  0  0  0  0  0  0  0  0
    7.9288   -0.6980    0.0000 C   0  0  0  0  0  0  0  0  0  0  0  0
    8.7977    2.9213    0.0000 C   0  0  0  0  0  0  0  0  0  0  0  0
    8.8228   -0.2327    0.0000 C   0  0  0  0  0  0  0  0  0  0  0  0
    9.7288    0.2812    0.0000 C   0  0  0  0  0  0  0  0  0  0  0  0
    7.9529    2.3300    0.0000 C   0  0  0  0  0  0  0  0  0  0  0  0
   10.6726    2.9430    0.0000 C   0  0  1  0  0  0  0  0  0  0  0  0
    3.8467   -2.6641    0.0000 C   0  0  0  0  0  0  0  0  0  0  0  0
    9.7288    3.4783    0.0000 C   0  0  0  0  0  0  0  0  0  0  0  0
    4.8466   -2.6603    0.0000 C   0  0  0  0  0  0  0  0  0  0  0  0
   11.6726    1.8542    0.0000 C   0  0  0  0  0  0  0  0  0  0  0  0
   11.1693    0.9901    0.0000 C   0  0  0  0  0  0  0  0  0  0  0  0
    6.9329    0.7270    0.0000 H   0  0  0  0  0  0  0  0  0  0  0  0
    5.2820   -2.0965    0.0000 H   0  0  0  0  0  0  0  0  0  0  0  0
    8.6682    0.8827    0.0000 H   0  0  0  0  0  0  0  0  0  0  0  0
    7.2969   -1.8199    0.0000 H   0  0  0  0  0  0  0  0  0  0  0  0
    7.6880   -1.1240    0.0000 H   0  0  0  0  0  0  0  0  0  0  0  0
    5.9847    1.8846    0.0000 H   0  0  0  0  0  0  0  0  0  0  0  0
    5.5862    1.1943    0.0000 H   0  0  0  0  0  0  0  0  0  0  0  0
    5.7835   -2.2433    0.0000 H   0  0  0  0  0  0  0  0  0  0  0  0
    6.5818   -2.2402    0.0000 H   0  0  0  0  0  0  0  0  0  0  0  0
    4.7681    0.8259    0.0000 H   0  0  0  0  0  0  0  0  0  0  0  0
    3.9700    0.8413    0.0000 H   0  0  0  0  0  0  0  0  0  0  0  0
    7.4613    2.2769    0.0000 H   0  0  0  0  0  0  0  0  0  0  0  0
    6.6643    2.2769    0.0000 H   0  0  0  0  0  0  0  0  0  0  0  0
   10.4633    0.8950    0.0000 H   0  0  0  0  0  0  0  0  0  0  0  0
    3.4025   -1.8737    0.0000 H   0  0  0  0  0  0  0  0  0  0  0  0
    5.9145    0.7903    0.0000 H   0  0  0  0  0  0  0  0  0  0  0  0
    5.2993    1.4151    0.0000 H   0  0  0  0  0  0  0  0  0  0  0  0
    4.6745    0.7999    0.0000 H   0  0  0  0  0  0  0  0  0  0  0  0
    3.2075    0.4166    0.0000 H   0  0  0  0  0  0  0  0  0  0  0  0
    2.8004   -0.2701    0.0000 H   0  0  0  0  0  0  0  0  0  0  0  0
    7.6188   -1.2350    0.0000 H   0  0  0  0  0  0  0  0  0  0  0  0
    8.4658   -1.0080    0.0000 H   0  0  0  0  0  0  0  0  0  0  0  0
    8.2388   -0.1611    0.0000 H   0  0  0  0  0  0  0  0  0  0  0  0
    8.5752    3.5000    0.0000 H   0  0  0  0  0  0  0  0  0  0  0  0
    8.1894    2.8011    0.0000 H   0  0  0  0  0  0  0  0  0  0  0  0
    8.8156   -0.8526    0.0000 H   0  0  0  0  0  0  0  0  0  0  0  0
    8.2588    2.8693    0.0000 H   0  0  0  0  0  0  0  0  0  0  0  0
    7.4136    2.6358    0.0000 H   0  0  0  0  0  0  0  0  0  0  0  0
    7.6471    1.7906    0.0000 H   0  0  0  0  0  0  0  0  0  0  0  0
   11.2101    2.6341    0.0000 H   0  0  0  0  0  0  0  0  0  0  0  0
    3.3702   -2.2674    0.0000 H   0  0  0  0  0  0  0  0  0  0  0  0
    3.3732   -3.0645    0.0000 H   0  0  0  0  0  0  0  0  0  0  0  0
   10.1225    3.9573    0.0000 H   0  0  0  0  0  0  0  0  0  0  0  0
    9.3242    3.9480    0.0000 H   0  0  0  0  0  0  0  0  0  0  0  0
    4.3109   -2.9724    0.0000 H   0  0  0  0  0  0  0  0  0  0  0  0
    5.1587   -3.1960    0.0000 H   0  0  0  0  0  0  0  0  0  0  0  0
    5.3824   -2.3482    0.0000 H   0  0  0  0  0  0  0  0  0  0  0  0
   12.2560    2.0640    0.0000 H   0  0  0  0  0  0  0  0  0  0  0  0
   11.5673    2.4652    0.0000 H   0  0  0  0  0  0  0  0  0  0  0  0
   10.6311    0.6822    0.0000 H   0  0  0  0  0  0  0  0  0  0  0  0
   11.4772    0.4520    0.0000 H   0  0  0  0  0  0  0  0  0  0  0  0
   11.7074    1.2980    0.0000 H   0  0  0  0  0  0  0  0  0  0  0  0
    2.0000   -1.4383    0.0000 H   0  0  0  0  0  0  0  0  0  0  0  0
   11.5343    4.0664    0.0000 H   0  0  0  0  0  0  0  0  0  0  0  0
    4.0421   -4.0664    0.0000 H   0  0  0  0  0  0  0  0  0  0  0  0
   12.7893    0.9838    0.0000 H   0  0  0  0  0  0  0  0  0  0  0  0
 20  1  1  6  0  0  0
  1 77  1  0  0  0  0
 29  2  1  1  0  0  0
  2 78  1  0  0  0  0
  3 30  1  0  0  0  0
  3 79  1  0  0  0  0
  4 27  2  0  0  0  0
  5 33  1  0  0  0  0
  5 80  1  0  0  0  0
  6  7  1  0  0  0  0
  6  9  1  0  0  0  0
  6 17  1  0  0  0  0
  6 21  1  1  0  0  0
  7  8  1  0  0  0  0
  7 15  1  0  0  0  0
  7 35  1  6  0  0  0
  8 12  1  0  0  0  0
  8 14  1  0  0  0  0
  8 24  1  1  0  0  0
  9 13  1  0  0  0  0
  9 16  1  0  0  0  0
  9 36  1  6  0  0  0
 10 11  1  0  0  0  0
 10 12  1  0  0  0  0
 10 18  1  0  0  0  0
 10 37  1  1  0  0  0
 11 19  1  0  0  0  0
 11 25  1  0  0  0  0
 11 28  1  6  0  0  0
 12 26  2  0  0  0  0
 13 20  1  0  0  0  0
 13 30  1  0  0  0  0
 13 32  1  6  0  0  0
 14 16  1  0  0  0  0
 14 38  1  0  0  0  0
 14 39  1  0  0  0  0
 15 18  1  0  0  0  0
 15 40  1  0  0  0  0
 15 41  1  0  0  0  0
 16 42  1  0  0  0  0
 16 43  1  0  0  0  0
 17 22  1  0  0  0  0
 17 44  1  0  0  0  0
 17 45  1  0  0  0  0
 18 46  1  0  0  0  0
 18 47  1  0  0  0  0
 19 23  1  0  0  0  0
 19 27  1  0  0  0  0
 19 48  1  1  0  0  0
 20 22  1  0  0  0  0
 20 49  1  0  0  0  0
 21 50  1  0  0  0  0
 21 51  1  0  0  0  0
 21 52  1  0  0  0  0
 22 53  1  0  0  0  0
 22 54  1  0  0  0  0
 23 29  1  0  0  0  0
 23 33  1  0  0  0  0
 23 34  1  1  0  0  0
 24 55  1  0  0  0  0
 24 56  1  0  0  0  0
 24 57  1  0  0  0  0
 25 31  1  0  0  0  0
 25 58  1  0  0  0  0
 25 59  1  0  0  0  0
 26 27  1  0  0  0  0
 26 60  1  0  0  0  0
 28 61  1  0  0  0  0
 28 62  1  0  0  0  0
 28 63  1  0  0  0  0
 29 31  1  0  0  0  0
 29 64  1  0  0  0  0
 30 65  1  0  0  0  0
 30 66  1  0  0  0  0
 31 67  1  0  0  0  0
 31 68  1  0  0  0  0
 32 69  1  0  0  0  0
 32 70  1  0  0  0  0
 32 71  1  0  0  0  0
 33 72  1  0  0  0  0
 33 73  1  0  0  0  0
 34 74  1  0  0  0  0
 34 75  1  0  0  0  0
 34 76  1  0  0  0  0
M  END
> <PUBCHEM_COMPOUND_CID>
102422435

> <PUBCHEM_COMPOUND_CANONICALIZED>
1

> <PUBCHEM_CACTVS_COMPLEXITY>
899

> <PUBCHEM_CACTVS_HBOND_ACCEPTOR>
5

> <PUBCHEM_CACTVS_HBOND_DONOR>
4

> <PUBCHEM_CACTVS_ROTATABLE_BOND>
2

> <PUBCHEM_CACTVS_SUBSKEYS>
AAADcfB4OAAAAAAAAAAAAAAAAAAAAAAAAAAwYMGCAAAAAADAAAAAGgAACAAADxSggAICAAAAAgCIAqBSAAAAAAAgAAAACAEAAEgAEBIAAQAAQAAFgAAIAQOKyPCPgAAAAAAAAADAAAYAADAAAAAAAAAAAA==

> <PUBCHEM_IUPAC_OPENEYE_NAME>
(3R,4S,4aR,6aR,6bR,8aR,9S,10R,12aR,14aR,14bR)-3,10-dihydroxy-4,9-bis(hydroxymethyl)-4,6b,9,12a,14b-pentamethyl-1,2,3,4a,6a,7,8,8a,10,11,12,13,14,14a-tetradecahydropicen-5-one

> <PUBCHEM_IUPAC_CAS_NAME>
(3R,4S,4aR,6aR,6bR,8aR,9S,10R,12aR,14aR,14bR)-3,10-dihydroxy-4,9-bis(hydroxymethyl)-4,6b,9,12a,14b-pentamethyl-1,2,3,4a,6a,7,8,8a,10,11,12,13,14,14a-tetradecahydropicen-5-one

> <PUBCHEM_IUPAC_NAME_MARKUP>
(3<I>R</I>,4<I>S</I>,4<I>a</I><I>R</I>,6<I>a</I><I>R</I>,6<I>b</I><I>R</I>,8<I>a</I><I>R</I>,9<I>S</I>,10<I>R</I>,12<I>a</I><I>R</I>,14<I>a</I><I>R</I>,14<I>b</I><I>R</I>)-3,10-dihydroxy-4,9-bis(hydroxymethyl)-4,6<I>b</I>,9,12<I>a</I>,14<I>b</I>-pentamethyl-1,2,3,4<I>a</I>,6<I>a</I>,7,8,8<I>a</I>,10,11,12,13,14,14<I>a</I>-tetradecahydropicen-5-one

> <PUBCHEM_IUPAC_NAME>
(3R,4S,4aR,6aR,6bR,8aR,9S,10R,12aR,14aR,14bR)-3,10-dihydroxy-4,9-bis(hydroxymethyl)-4,6b,9,12a,14b-pentamethyl-1,2,3,4a,6a,7,8,8a,10,11,12,13,14,14a-tetradecahydropicen-5-one

> <PUBCHEM_IUPAC_SYSTEMATIC_NAME>
(3R,4S,4aR,6aR,6bR,8aR,9S,10R,12aR,14aR,14bR)-4,9-bis(hydroxymethyl)-4,6b,9,12a,14b-pentamethyl-3,10-bis(oxidanyl)-1,2,3,4a,6a,7,8,8a,10,11,12,13,14,14a-tetradecahydropicen-5-one

> <PUBCHEM_IUPAC_TRADITIONAL_NAME>
(3R,4S,4aR,6aR,6bR,8aR,9S,10R,12aR,14aR,14bR)-3,10-dihydroxy-4,6b,9,12a,14b-pentamethyl-4,9-dimethylol-1,2,3,4a,6a,7,8,8a,10,11,12,13,14,14a-tetradecahydropicen-5-one

> <PUBCHEM_IUPAC_INCHI>
InChI=1S/C29H46O5/c1-25-11-8-21-27(3,13-10-22(33)28(21,4)15-30)20(25)7-6-17-18(25)14-19(32)24-26(17,2)12-9-23(34)29(24,5)16-31/h14,17,20-24,30-31,33-34H,6-13,15-16H2,1-5H3/t17-,20-,21+,22+,23+,24+,25-,26+,27+,28+,29-/m0/s1

> <PUBCHEM_IUPAC_INCHIKEY>
CDSZLHJUVVFDGL-MWQCIMRXSA-N

> <PUBCHEM_XLOGP3_AA>
4.8

> <PUBCHEM_EXACT_MASS>
474.33452456

> <PUBCHEM_MOLECULAR_FORMULA>
C29H46O5

> <PUBCHEM_MOLECULAR_WEIGHT>
474.7

> <PUBCHEM_OPENEYE_CAN_SMILES>
CC12CCC(C(C1C(=O)C=C3C2CCC4C3(CCC5C4(CCC(C5(C)CO)O)C)C)(C)CO)O

> <PUBCHEM_OPENEYE_ISO_SMILES>
C[C@]12CC[C@H]([C@]([C@@H]1C(=O)C=C3[C@@H]2CC[C@H]4[C@]3(CC[C@@H]5[C@@]4(CC[C@H]([C@]5(C)CO)O)C)C)(C)CO)O

> <PUBCHEM_CACTVS_TPSA>
98

> <PUBCHEM_MONOISOTOPIC_WEIGHT>
474.33452456

> <PUBCHEM_TOTAL_CHARGE>
0

> <PUBCHEM_HEAVY_ATOM_COUNT>
34

> <PUBCHEM_ATOM_DEF_STEREO_COUNT>
11

> <PUBCHEM_ATOM_UDEF_STEREO_COUNT>
0

> <PUBCHEM_BOND_DEF_STEREO_COUNT>
0

> <PUBCHEM_BOND_UDEF_STEREO_COUNT>
0

> <PUBCHEM_ISOTOPIC_ATOM_COUNT>
0

> <PUBCHEM_COMPONENT_COUNT>
1

> <PUBCHEM_CACTVS_TAUTO_COUNT>
-1

> <PUBCHEM_COORDINATE_TYPE>
1
5
255

> <PUBCHEM_BONDANNOTATIONS>
20  1  6
10  37  5
11  28  6
13  32  6
19  48  5
29  2  5
23  34  5
6  21  5
7  35  6
8  24  5
9  36  6

$$$$
