 
  -OEChem-10192103292D

 89 88  0     1  0  0  0  0  0999 V2000
   10.6603    7.3450    0.0000 O   0  0  0  0  0  0  0  0  0  0  0  0
    7.1962    6.3450    0.0000 O   0  0  0  0  0  0  0  0  0  0  0  0
   13.2583    5.8450    0.0000 O   0  0  0  0  0  0  0  0  0  0  0  0
   16.7224    5.8450    0.0000 O   0  0  0  0  0  0  0  0  0  0  0  0
    9.7942    5.8450    0.0000 N   0  0  3  0  0  0  0  0  0  0  0  0
    8.0622    2.8450    0.0000 C   0  0  0  0  0  0  0  0  0  0  0  0
    8.9282    3.3450    0.0000 C   0  0  0  0  0  0  0  0  0  0  0  0
    8.0622    1.8450    0.0000 C   0  0  0  0  0  0  0  0  0  0  0  0
    8.9282    4.3450    0.0000 C   0  0  0  0  0  0  0  0  0  0  0  0
    7.1962    1.3450    0.0000 C   0  0  0  0  0  0  0  0  0  0  0  0
    9.7942    4.8450    0.0000 C   0  0  0  0  0  0  0  0  0  0  0  0
    7.1962    0.3450    0.0000 C   0  0  0  0  0  0  0  0  0  0  0  0
    6.3301   -0.1550    0.0000 C   0  0  0  0  0  0  0  0  0  0  0  0
    6.3301   -1.1550    0.0000 C   0  0  0  0  0  0  0  0  0  0  0  0
    5.4641   -1.6550    0.0000 C   0  0  0  0  0  0  0  0  0  0  0  0
    5.4641   -2.6550    0.0000 C   0  0  0  0  0  0  0  0  0  0  0  0
   10.6603    6.3450    0.0000 C   0  0  3  0  0  0  0  0  0  0  0  0
    8.9282    6.3450    0.0000 C   0  0  0  0  0  0  0  0  0  0  0  0
    4.5981   -3.1550    0.0000 C   0  0  0  0  0  0  0  0  0  0  0  0
    4.5981   -4.1550    0.0000 C   0  0  0  0  0  0  0  0  0  0  0  0
   11.5263    5.8450    0.0000 C   0  0  0  0  0  0  0  0  0  0  0  0
    3.7320   -4.6550    0.0000 C   0  0  0  0  0  0  0  0  0  0  0  0
    8.0622    5.8450    0.0000 C   0  0  3  0  0  0  0  0  0  0  0  0
    3.7320   -5.6550    0.0000 C   0  0  0  0  0  0  0  0  0  0  0  0
   12.3923    6.3450    0.0000 C   0  0  0  0  0  0  0  0  0  0  0  0
    2.8660   -6.1550    0.0000 C   0  0  0  0  0  0  0  0  0  0  0  0
    8.0622    4.8450    0.0000 C   0  0  0  0  0  0  0  0  0  0  0  0
    2.8660   -7.1550    0.0000 C   0  0  0  0  0  0  0  0  0  0  0  0
    2.0000   -7.6550    0.0000 C   0  0  0  0  0  0  0  0  0  0  0  0
   14.1244    6.3450    0.0000 C   0  0  0  0  0  0  0  0  0  0  0  0
   14.9904    5.8450    0.0000 C   0  0  0  0  0  0  0  0  0  0  0  0
   15.8564    6.3450    0.0000 C   0  0  0  0  0  0  0  0  0  0  0  0
    7.8501    3.4276    0.0000 H   0  0  0  0  0  0  0  0  0  0  0  0
    7.4516    2.7373    0.0000 H   0  0  0  0  0  0  0  0  0  0  0  0
    9.1403    2.7624    0.0000 H   0  0  0  0  0  0  0  0  0  0  0  0
    9.5388    3.4527    0.0000 H   0  0  0  0  0  0  0  0  0  0  0  0
    8.2742    1.2624    0.0000 H   0  0  0  0  0  0  0  0  0  0  0  0
    8.6728    1.9527    0.0000 H   0  0  0  0  0  0  0  0  0  0  0  0
    8.7162    4.9276    0.0000 H   0  0  0  0  0  0  0  0  0  0  0  0
    8.3176    4.2373    0.0000 H   0  0  0  0  0  0  0  0  0  0  0  0
    6.9841    1.9276    0.0000 H   0  0  0  0  0  0  0  0  0  0  0  0
    6.5856    1.2373    0.0000 H   0  0  0  0  0  0  0  0  0  0  0  0
   10.0063    4.2624    0.0000 H   0  0  0  0  0  0  0  0  0  0  0  0
   10.4048    4.9527    0.0000 H   0  0  0  0  0  0  0  0  0  0  0  0
    7.4082   -0.2376    0.0000 H   0  0  0  0  0  0  0  0  0  0  0  0
    7.8067    0.4527    0.0000 H   0  0  0  0  0  0  0  0  0  0  0  0
    6.1181    0.4276    0.0000 H   0  0  0  0  0  0  0  0  0  0  0  0
    5.7196   -0.2627    0.0000 H   0  0  0  0  0  0  0  0  0  0  0  0
    6.5422   -1.7376    0.0000 H   0  0  0  0  0  0  0  0  0  0  0  0
    6.9407   -1.0473    0.0000 H   0  0  0  0  0  0  0  0  0  0  0  0
    5.2520   -1.0724    0.0000 H   0  0  0  0  0  0  0  0  0  0  0  0
    4.8535   -1.7627    0.0000 H   0  0  0  0  0  0  0  0  0  0  0  0
    5.6762   -3.2376    0.0000 H   0  0  0  0  0  0  0  0  0  0  0  0
    6.0747   -2.5473    0.0000 H   0  0  0  0  0  0  0  0  0  0  0  0
   11.1972    6.6550    0.0000 H   0  0  0  0  0  0  0  0  0  0  0  0
    9.3267    6.8200    0.0000 H   0  0  0  0  0  0  0  0  0  0  0  0
    8.5297    6.8200    0.0000 H   0  0  0  0  0  0  0  0  0  0  0  0
    4.3860   -2.5724    0.0000 H   0  0  0  0  0  0  0  0  0  0  0  0
    3.9875   -3.2627    0.0000 H   0  0  0  0  0  0  0  0  0  0  0  0
    4.8101   -4.7376    0.0000 H   0  0  0  0  0  0  0  0  0  0  0  0
    5.2087   -4.0473    0.0000 H   0  0  0  0  0  0  0  0  0  0  0  0
   11.1278    5.3700    0.0000 H   0  0  0  0  0  0  0  0  0  0  0  0
   11.9248    5.3700    0.0000 H   0  0  0  0  0  0  0  0  0  0  0  0
    3.5200   -4.0724    0.0000 H   0  0  0  0  0  0  0  0  0  0  0  0
    3.1215   -4.7627    0.0000 H   0  0  0  0  0  0  0  0  0  0  0  0
    8.0622    6.4650    0.0000 H   0  0  0  0  0  0  0  0  0  0  0  0
    3.9441   -6.2376    0.0000 H   0  0  0  0  0  0  0  0  0  0  0  0
    4.3426   -5.5473    0.0000 H   0  0  0  0  0  0  0  0  0  0  0  0
   12.7908    6.8200    0.0000 H   0  0  0  0  0  0  0  0  0  0  0  0
   11.9938    6.8200    0.0000 H   0  0  0  0  0  0  0  0  0  0  0  0
    2.6540   -5.5724    0.0000 H   0  0  0  0  0  0  0  0  0  0  0  0
    2.2554   -6.2627    0.0000 H   0  0  0  0  0  0  0  0  0  0  0  0
    7.4422    4.8450    0.0000 H   0  0  0  0  0  0  0  0  0  0  0  0
    8.0622    4.2250    0.0000 H   0  0  0  0  0  0  0  0  0  0  0  0
    8.6822    4.8450    0.0000 H   0  0  0  0  0  0  0  0  0  0  0  0
   11.1972    7.6550    0.0000 H   0  0  0  0  0  0  0  0  0  0  0  0
    3.0781   -7.7376    0.0000 H   0  0  0  0  0  0  0  0  0  0  0  0
    3.4766   -7.0473    0.0000 H   0  0  0  0  0  0  0  0  0  0  0  0
    6.6592    6.0350    0.0000 H   0  0  0  0  0  0  0  0  0  0  0  0
    1.6900   -7.1181    0.0000 H   0  0  0  0  0  0  0  0  0  0  0  0
    1.4631   -7.9650    0.0000 H   0  0  0  0  0  0  0  0  0  0  0  0
    2.3100   -8.1919    0.0000 H   0  0  0  0  0  0  0  0  0  0  0  0
   14.5229    6.8200    0.0000 H   0  0  0  0  0  0  0  0  0  0  0  0
   13.7258    6.8200    0.0000 H   0  0  0  0  0  0  0  0  0  0  0  0
   14.5919    5.3700    0.0000 H   0  0  0  0  0  0  0  0  0  0  0  0
   15.3889    5.3700    0.0000 H   0  0  0  0  0  0  0  0  0  0  0  0
   16.2549    6.8200    0.0000 H   0  0  0  0  0  0  0  0  0  0  0  0
   15.4579    6.8200    0.0000 H   0  0  0  0  0  0  0  0  0  0  0  0
   17.2594    6.1550    0.0000 H   0  0  0  0  0  0  0  0  0  0  0  0
  1 17  1  0  0  0  0
  1 76  1  0  0  0  0
  2 23  1  0  0  0  0
  2 79  1  0  0  0  0
  3 25  1  0  0  0  0
  3 30  1  0  0  0  0
  4 32  1  0  0  0  0
  4 89  1  0  0  0  0
  5 11  1  0  0  0  0
  5 17  1  0  0  0  0
  5 18  1  0  0  0  0
  6  7  1  0  0  0  0
  6  8  1  0  0  0  0
  6 33  1  0  0  0  0
  6 34  1  0  0  0  0
  7  9  1  0  0  0  0
  7 35  1  0  0  0  0
  7 36  1  0  0  0  0
  8 10  1  0  0  0  0
  8 37  1  0  0  0  0
  8 38  1  0  0  0  0
  9 11  1  0  0  0  0
  9 39  1  0  0  0  0
  9 40  1  0  0  0  0
 10 12  1  0  0  0  0
 10 41  1  0  0  0  0
 10 42  1  0  0  0  0
 11 43  1  0  0  0  0
 11 44  1  0  0  0  0
 12 13  1  0  0  0  0
 12 45  1  0  0  0  0
 12 46  1  0  0  0  0
 13 14  1  0  0  0  0
 13 47  1  0  0  0  0
 13 48  1  0  0  0  0
 14 15  1  0  0  0  0
 14 49  1  0  0  0  0
 14 50  1  0  0  0  0
 15 16  1  0  0  0  0
 15 51  1  0  0  0  0
 15 52  1  0  0  0  0
 16 19  1  0  0  0  0
 16 53  1  0  0  0  0
 16 54  1  0  0  0  0
 17 21  1  0  0  0  0
 17 55  1  0  0  0  0
 18 23  1  0  0  0  0
 18 56  1  0  0  0  0
 18 57  1  0  0  0  0
 19 20  1  0  0  0  0
 19 58  1  0  0  0  0
 19 59  1  0  0  0  0
 20 22  1  0  0  0  0
 20 60  1  0  0  0  0
 20 61  1  0  0  0  0
 21 25  1  0  0  0  0
 21 62  1  0  0  0  0
 21 63  1  0  0  0  0
 22 24  1  0  0  0  0
 22 64  1  0  0  0  0
 22 65  1  0  0  0  0
 23 27  1  0  0  0  0
 23 66  1  0  0  0  0
 24 26  1  0  0  0  0
 24 67  1  0  0  0  0
 24 68  1  0  0  0  0
 25 69  1  0  0  0  0
 25 70  1  0  0  0  0
 26 28  1  0  0  0  0
 26 71  1  0  0  0  0
 26 72  1  0  0  0  0
 27 73  1  0  0  0  0
 27 74  1  0  0  0  0
 27 75  1  0  0  0  0
 28 29  1  0  0  0  0
 28 77  1  0  0  0  0
 28 78  1  0  0  0  0
 29 80  1  0  0  0  0
 29 81  1  0  0  0  0
 29 82  1  0  0  0  0
 30 31  1  0  0  0  0
 30 83  1  0  0  0  0
 30 84  1  0  0  0  0
 31 32  1  0  0  0  0
 31 85  1  0  0  0  0
 31 86  1  0  0  0  0
 32 87  1  0  0  0  0
 32 88  1  0  0  0  0
M  END
> <PUBCHEM_COMPOUND_CID>
57007063

> <PUBCHEM_COMPOUND_CANONICALIZED>
1

> <PUBCHEM_CACTVS_COMPLEXITY>
357

> <PUBCHEM_CACTVS_HBOND_ACCEPTOR>
5

> <PUBCHEM_CACTVS_HBOND_DONOR>
3

> <PUBCHEM_CACTVS_ROTATABLE_BOND>
26

> <PUBCHEM_CACTVS_SUBSKEYS>
AAADcfB6OAAAAAAAAAAAAAAAAAAAAAAAAAAAAAAAAAAAAAAAAAAAHgAACAAACBThgAYCAAMABgAAAAAAAAAAAAAAAAAAAAAIAAACEAIAgAAGQAADAACQAAEQgIAAAAAAAAAAAAAAAAAAAAAAAAAAAAAAAA==

> <PUBCHEM_IUPAC_OPENEYE_NAME>
3-(3-hydroxypropoxy)-1-[2-hydroxypropyl(octadecyl)amino]propan-1-ol

> <PUBCHEM_IUPAC_CAS_NAME>
3-(3-hydroxypropoxy)-1-[2-hydroxypropyl(octadecyl)amino]-1-propanol

> <PUBCHEM_IUPAC_NAME_MARKUP>
3-(3-hydroxypropoxy)-1-[2-hydroxypropyl(octadecyl)amino]propan-1-ol

> <PUBCHEM_IUPAC_NAME>
3-(3-hydroxypropoxy)-1-[2-hydroxypropyl(octadecyl)amino]propan-1-ol

> <PUBCHEM_IUPAC_SYSTEMATIC_NAME>
1-[octadecyl(2-oxidanylpropyl)amino]-3-(3-oxidanylpropoxy)propan-1-ol

> <PUBCHEM_IUPAC_TRADITIONAL_NAME>
3-(3-hydroxypropoxy)-1-[2-hydroxypropyl(stearyl)amino]propan-1-ol

> <PUBCHEM_IUPAC_INCHI>
InChI=1S/C27H57NO4/c1-3-4-5-6-7-8-9-10-11-12-13-14-15-16-17-18-21-28(25-26(2)30)27(31)20-24-32-23-19-22-29/h26-27,29-31H,3-25H2,1-2H3

> <PUBCHEM_IUPAC_INCHIKEY>
FVLDIECILKBICV-UHFFFAOYSA-N

> <PUBCHEM_XLOGP3_AA>
8.2

> <PUBCHEM_EXACT_MASS>
459.42875930

> <PUBCHEM_MOLECULAR_FORMULA>
C27H57NO4

> <PUBCHEM_MOLECULAR_WEIGHT>
459.7

> <PUBCHEM_OPENEYE_CAN_SMILES>
CCCCCCCCCCCCCCCCCCN(CC(C)O)C(CCOCCCO)O

> <PUBCHEM_OPENEYE_ISO_SMILES>
CCCCCCCCCCCCCCCCCCN(CC(C)O)C(CCOCCCO)O

> <PUBCHEM_CACTVS_TPSA>
73.2

> <PUBCHEM_MONOISOTOPIC_WEIGHT>
459.42875930

> <PUBCHEM_TOTAL_CHARGE>
0

> <PUBCHEM_HEAVY_ATOM_COUNT>
32

> <PUBCHEM_ATOM_DEF_STEREO_COUNT>
0

> <PUBCHEM_ATOM_UDEF_STEREO_COUNT>
2

> <PUBCHEM_BOND_DEF_STEREO_COUNT>
0

> <PUBCHEM_BOND_UDEF_STEREO_COUNT>
0

> <PUBCHEM_ISOTOPIC_ATOM_COUNT>
0

> <PUBCHEM_COMPONENT_COUNT>
1

> <PUBCHEM_CACTVS_TAUTO_COUNT>
-1

> <PUBCHEM_COORDINATE_TYPE>
1
5
255

> <PUBCHEM_BONDANNOTATIONS>
17  1  3
23  2  3

$$$$
