 
  -OEChem-10192104312D

 64 65  0     1  0  0  0  0  0999 V2000
    5.4641   -0.3100    0.0000 O   0  0  0  0  0  0  0  0  0  0  0  0
    5.4641   -3.3100    0.0000 O   0  0  0  0  0  0  0  0  0  0  0  0
    3.7320   -2.3100    0.0000 O   0  0  0  0  0  0  0  0  0  0  0  0
    7.1962   -0.3100    0.0000 O   0  0  0  0  0  0  0  0  0  0  0  0
    7.1962   -2.3100    0.0000 O   0  0  0  0  0  0  0  0  0  0  0  0
    3.7320    0.6900    0.0000 O   0  0  0  0  0  0  0  0  0  0  0  0
    3.7320   -3.3100    0.0000 O   0  0  0  0  0  0  0  0  0  0  0  0
    2.8660   -0.8100    0.0000 O   0  0  0  0  0  0  0  0  0  0  0  0
    8.0622   -0.8100    0.0000 O   0  0  0  0  0  0  0  0  0  0  0  0
    2.0000    0.6900    0.0000 O   0  0  0  0  0  0  0  0  0  0  0  0
   11.5263    4.1900    0.0000 O   0  0  0  0  0  0  0  0  0  0  0  0
    5.4641   -2.3100    0.0000 C   0  0  1  0  0  0  0  0  0  0  0  0
    4.5981   -1.8100    0.0000 C   0  0  2  0  0  0  0  0  0  0  0  0
    6.3301   -1.8100    0.0000 C   0  0  2  0  0  0  0  0  0  0  0  0
    4.5981   -0.8100    0.0000 C   0  0  1  0  0  0  0  0  0  0  0  0
    6.3301   -0.8100    0.0000 C   0  0  1  0  0  0  0  0  0  0  0  0
    3.7320   -0.3100    0.0000 C   0  0  0  0  0  0  0  0  0  0  0  0
    7.1962    0.6900    0.0000 C   0  0  0  0  0  0  0  0  0  0  0  0
    8.0622    1.1900    0.0000 C   0  0  0  0  0  0  0  0  0  0  0  0
    4.5981   -3.8100    0.0000 C   0  0  0  0  0  0  0  0  0  0  0  0
    2.8660   -1.8100    0.0000 C   0  0  0  0  0  0  0  0  0  0  0  0
    8.0622   -1.8100    0.0000 C   0  0  0  0  0  0  0  0  0  0  0  0
    8.0622    2.1900    0.0000 C   0  0  0  0  0  0  0  0  0  0  0  0
    4.5981   -4.8100    0.0000 C   0  0  0  0  0  0  0  0  0  0  0  0
    2.0000   -2.3100    0.0000 C   0  0  0  0  0  0  0  0  0  0  0  0
    2.8660    1.1900    0.0000 C   0  0  0  0  0  0  0  0  0  0  0  0
    8.9282   -2.3100    0.0000 C   0  0  0  0  0  0  0  0  0  0  0  0
    8.9282    2.6900    0.0000 C   0  0  0  0  0  0  0  0  0  0  0  0
    2.8660    2.1900    0.0000 C   0  0  0  0  0  0  0  0  0  0  0  0
    8.9282    3.6900    0.0000 C   0  0  0  0  0  0  0  0  0  0  0  0
    9.7942    2.1900    0.0000 C   0  0  0  0  0  0  0  0  0  0  0  0
    9.7942    4.1900    0.0000 C   0  0  0  0  0  0  0  0  0  0  0  0
   10.6603    2.6900    0.0000 C   0  0  0  0  0  0  0  0  0  0  0  0
   10.6603    3.6900    0.0000 C   0  0  0  0  0  0  0  0  0  0  0  0
    4.9272   -2.6200    0.0000 H   0  0  0  0  0  0  0  0  0  0  0  0
    4.5981   -2.4300    0.0000 H   0  0  0  0  0  0  0  0  0  0  0  0
    6.3301   -2.4300    0.0000 H   0  0  0  0  0  0  0  0  0  0  0  0
    4.5981   -0.1900    0.0000 H   0  0  0  0  0  0  0  0  0  0  0  0
    6.3301   -0.1900    0.0000 H   0  0  0  0  0  0  0  0  0  0  0  0
    3.1215   -0.2023    0.0000 H   0  0  0  0  0  0  0  0  0  0  0  0
    3.5200   -0.8926    0.0000 H   0  0  0  0  0  0  0  0  0  0  0  0
    6.9841    1.2726    0.0000 H   0  0  0  0  0  0  0  0  0  0  0  0
    6.5856    0.5823    0.0000 H   0  0  0  0  0  0  0  0  0  0  0  0
    8.2742    0.6074    0.0000 H   0  0  0  0  0  0  0  0  0  0  0  0
    8.6728    1.2977    0.0000 H   0  0  0  0  0  0  0  0  0  0  0  0
    7.8501    2.7726    0.0000 H   0  0  0  0  0  0  0  0  0  0  0  0
    7.4516    2.0823    0.0000 H   0  0  0  0  0  0  0  0  0  0  0  0
    3.9781   -4.8100    0.0000 H   0  0  0  0  0  0  0  0  0  0  0  0
    4.5981   -5.4300    0.0000 H   0  0  0  0  0  0  0  0  0  0  0  0
    5.2181   -4.8100    0.0000 H   0  0  0  0  0  0  0  0  0  0  0  0
    1.6900   -1.7731    0.0000 H   0  0  0  0  0  0  0  0  0  0  0  0
    1.4631   -2.6200    0.0000 H   0  0  0  0  0  0  0  0  0  0  0  0
    2.3100   -2.8469    0.0000 H   0  0  0  0  0  0  0  0  0  0  0  0
    8.6182   -2.8469    0.0000 H   0  0  0  0  0  0  0  0  0  0  0  0
    9.4651   -2.6200    0.0000 H   0  0  0  0  0  0  0  0  0  0  0  0
    9.2382   -1.7731    0.0000 H   0  0  0  0  0  0  0  0  0  0  0  0
    3.4860    2.1900    0.0000 H   0  0  0  0  0  0  0  0  0  0  0  0
    2.8660    2.8100    0.0000 H   0  0  0  0  0  0  0  0  0  0  0  0
    2.2460    2.1900    0.0000 H   0  0  0  0  0  0  0  0  0  0  0  0
    8.3913    4.0000    0.0000 H   0  0  0  0  0  0  0  0  0  0  0  0
    9.7942    1.5700    0.0000 H   0  0  0  0  0  0  0  0  0  0  0  0
    9.7942    4.8100    0.0000 H   0  0  0  0  0  0  0  0  0  0  0  0
   11.1972    2.3800    0.0000 H   0  0  0  0  0  0  0  0  0  0  0  0
   11.5263    4.8100    0.0000 H   0  0  0  0  0  0  0  0  0  0  0  0
  1 15  1  0  0  0  0
  1 16  1  0  0  0  0
 12  2  1  1  0  0  0
  2 20  1  0  0  0  0
 13  3  1  1  0  0  0
  3 21  1  0  0  0  0
 16  4  1  1  0  0  0
  4 18  1  0  0  0  0
 14  5  1  6  0  0  0
  5 22  1  0  0  0  0
  6 17  1  0  0  0  0
  6 26  1  0  0  0  0
  7 20  2  0  0  0  0
  8 21  2  0  0  0  0
  9 22  2  0  0  0  0
 10 26  2  0  0  0  0
 11 34  1  0  0  0  0
 11 64  1  0  0  0  0
 12 13  1  0  0  0  0
 12 14  1  0  0  0  0
 12 35  1  0  0  0  0
 13 15  1  0  0  0  0
 13 36  1  0  0  0  0
 14 16  1  0  0  0  0
 14 37  1  0  0  0  0
 15 17  1  1  0  0  0
 15 38  1  0  0  0  0
 16 39  1  0  0  0  0
 17 40  1  0  0  0  0
 17 41  1  0  0  0  0
 18 19  1  0  0  0  0
 18 42  1  0  0  0  0
 18 43  1  0  0  0  0
 19 23  1  0  0  0  0
 19 44  1  0  0  0  0
 19 45  1  0  0  0  0
 20 24  1  0  0  0  0
 21 25  1  0  0  0  0
 22 27  1  0  0  0  0
 23 28  1  0  0  0  0
 23 46  1  0  0  0  0
 23 47  1  0  0  0  0
 24 48  1  0  0  0  0
 24 49  1  0  0  0  0
 24 50  1  0  0  0  0
 25 51  1  0  0  0  0
 25 52  1  0  0  0  0
 25 53  1  0  0  0  0
 26 29  1  0  0  0  0
 27 54  1  0  0  0  0
 27 55  1  0  0  0  0
 27 56  1  0  0  0  0
 28 30  2  0  0  0  0
 28 31  1  0  0  0  0
 29 57  1  0  0  0  0
 29 58  1  0  0  0  0
 29 59  1  0  0  0  0
 30 32  1  0  0  0  0
 30 60  1  0  0  0  0
 31 33  2  0  0  0  0
 31 61  1  0  0  0  0
 32 34  2  0  0  0  0
 32 62  1  0  0  0  0
 33 34  1  0  0  0  0
 33 63  1  0  0  0  0
M  END
> <PUBCHEM_COMPOUND_CID>
101773208

> <PUBCHEM_COMPOUND_CANONICALIZED>
1

> <PUBCHEM_CACTVS_COMPLEXITY>
701

> <PUBCHEM_CACTVS_HBOND_ACCEPTOR>
11

> <PUBCHEM_CACTVS_HBOND_DONOR>
1

> <PUBCHEM_CACTVS_ROTATABLE_BOND>
14

> <PUBCHEM_CACTVS_SUBSKEYS>
AAADceB4PAAAAAAAAAAAAAAAAAAAAAAAAAA0QAAAAAAAAAABAAAAGgAACAAADBSwmAMyDoAABgCIAiDSCAACAAAgIAAIiAAGCIgZJiKCERKicAAlwBEOmAfA4KwOIAAAAAAAAABAAAAAAAAAAAAAAAAAAA==

> <PUBCHEM_IUPAC_OPENEYE_NAME>
[(2R,3S,4S,5R,6R)-3,4,5-triacetoxy-6-[3-(4-hydroxyphenyl)propoxy]tetrahydropyran-2-yl]methyl acetate

> <PUBCHEM_IUPAC_CAS_NAME>
acetic acid [(2R,3S,4S,5R,6R)-3,4,5-triacetyloxy-6-[3-(4-hydroxyphenyl)propoxy]-2-oxanyl]methyl ester

> <PUBCHEM_IUPAC_NAME_MARKUP>
[(2<I>R</I>,3<I>S</I>,4<I>S</I>,5<I>R</I>,6<I>R</I>)-3,4,5-triacetyloxy-6-[3-(4-hydroxyphenyl)propoxy]oxan-2-yl]methyl acetate

> <PUBCHEM_IUPAC_NAME>
[(2R,3S,4S,5R,6R)-3,4,5-triacetyloxy-6-[3-(4-hydroxyphenyl)propoxy]oxan-2-yl]methyl acetate

> <PUBCHEM_IUPAC_SYSTEMATIC_NAME>
[(2R,3S,4S,5R,6R)-3,4,5-triacetyloxy-6-[3-(4-hydroxyphenyl)propoxy]oxan-2-yl]methyl ethanoate

> <PUBCHEM_IUPAC_TRADITIONAL_NAME>
acetic acid [(2R,3S,4S,5R,6R)-3,4,5-triacetoxy-6-[3-(4-hydroxyphenyl)propoxy]tetrahydropyran-2-yl]methyl ester

> <PUBCHEM_IUPAC_INCHI>
InChI=1S/C23H30O11/c1-13(24)30-12-19-20(31-14(2)25)21(32-15(3)26)22(33-16(4)27)23(34-19)29-11-5-6-17-7-9-18(28)10-8-17/h7-10,19-23,28H,5-6,11-12H2,1-4H3/t19-,20+,21+,22-,23-/m1/s1

> <PUBCHEM_IUPAC_INCHIKEY>
AKAAVBVUNHGMSK-BMXMUORJSA-N

> <PUBCHEM_XLOGP3_AA>
1.7

> <PUBCHEM_EXACT_MASS>
482.17881177

> <PUBCHEM_MOLECULAR_FORMULA>
C23H30O11

> <PUBCHEM_MOLECULAR_WEIGHT>
482.5

> <PUBCHEM_OPENEYE_CAN_SMILES>
CC(=O)OCC1C(C(C(C(O1)OCCCC2=CC=C(C=C2)O)OC(=O)C)OC(=O)C)OC(=O)C

> <PUBCHEM_OPENEYE_ISO_SMILES>
CC(=O)OC[C@@H]1[C@@H]([C@@H]([C@H]([C@@H](O1)OCCCC2=CC=C(C=C2)O)OC(=O)C)OC(=O)C)OC(=O)C

> <PUBCHEM_CACTVS_TPSA>
144

> <PUBCHEM_MONOISOTOPIC_WEIGHT>
482.17881177

> <PUBCHEM_TOTAL_CHARGE>
0

> <PUBCHEM_HEAVY_ATOM_COUNT>
34

> <PUBCHEM_ATOM_DEF_STEREO_COUNT>
5

> <PUBCHEM_ATOM_UDEF_STEREO_COUNT>
0

> <PUBCHEM_BOND_DEF_STEREO_COUNT>
0

> <PUBCHEM_BOND_UDEF_STEREO_COUNT>
0

> <PUBCHEM_ISOTOPIC_ATOM_COUNT>
0

> <PUBCHEM_COMPONENT_COUNT>
1

> <PUBCHEM_CACTVS_TAUTO_COUNT>
-1

> <PUBCHEM_COORDINATE_TYPE>
1
5
255

> <PUBCHEM_BONDANNOTATIONS>
15  17  5
12  2  5
28  30  8
28  31  8
13  3  5
30  32  8
31  33  8
32  34  8
33  34  8
16  4  5
14  5  6

$$$$
