 
  -OEChem-10192104062D

 65 68  0     1  0  0  0  0  0999 V2000
    7.2507    1.8856    0.0000 O   0  0  0  0  0  0  0  0  0  0  0  0
    6.8671   -1.4674    0.0000 O   0  0  0  0  0  0  0  0  0  0  0  0
    5.1070   -0.1887    0.0000 O   0  0  0  0  0  0  0  0  0  0  0  0
    5.1350   -1.4674    0.0000 O   0  0  0  0  0  0  0  0  0  0  0  0
    6.8671   -3.4674    0.0000 O   0  0  0  0  0  0  0  0  0  0  0  0
    5.1350   -4.4674    0.0000 O   0  0  0  0  0  0  0  0  0  0  0  0
    3.4030   -3.4674    0.0000 O   0  0  0  0  0  0  0  0  0  0  0  0
    2.5369   -1.9674    0.0000 O   0  0  0  0  0  0  0  0  0  0  0  0
    8.2152    2.5356    0.0000 C   0  0  1  0  0  0  0  0  0  0  0  0
    9.1358    2.9264    0.0000 C   0  0  2  0  0  0  0  0  0  0  0  0
    8.7456    3.8561    0.0000 C   0  0  0  0  0  0  0  0  0  0  0  0
    7.8664    1.0976    0.0000 C   0  0  2  0  0  0  0  0  0  0  0  0
    7.8175    3.4622    0.0000 C   0  0  0  0  0  0  0  0  0  0  0  0
    8.1754    0.1465    0.0000 C   0  0  2  0  0  0  0  0  0  0  0  0
    9.3283   -0.2764    0.0000 C   0  0  0  0  0  0  0  0  0  0  0  0
    9.9344    2.3246    0.0000 C   0  0  0  0  0  0  0  0  0  0  0  0
    9.8125    1.3320    0.0000 C   0  0  0  0  0  0  0  0  0  0  0  0
    6.3671    1.0714    0.0000 C   0  0  0  0  0  0  0  0  0  0  0  0
    6.8671   -0.4674    0.0000 C   0  0  1  0  0  0  0  0  0  0  0  0
    6.0580    0.1204    0.0000 C   0  0  1  0  0  0  0  0  0  0  0  0
    8.3568    4.7774    0.0000 C   0  0  0  0  0  0  0  0  0  0  0  0
    9.6669    4.2450    0.0000 C   0  0  0  0  0  0  0  0  0  0  0  0
    8.4844   -0.8045    0.0000 C   0  0  0  0  0  0  0  0  0  0  0  0
    6.0010   -1.9674    0.0000 C   0  0  2  0  0  0  0  0  0  0  0  0
    6.0010   -2.9674    0.0000 C   0  0  1  0  0  0  0  0  0  0  0  0
    5.1350   -3.4674    0.0000 C   0  0  2  0  0  0  0  0  0  0  0  0
    4.2690   -1.9674    0.0000 C   0  0  1  0  0  0  0  0  0  0  0  0
    4.2690   -2.9674    0.0000 C   0  0  1  0  0  0  0  0  0  0  0  0
    3.4030   -1.4674    0.0000 C   0  0  0  0  0  0  0  0  0  0  0  0
    7.3664    2.4912    0.0000 H   0  0  0  0  0  0  0  0  0  0  0  0
    9.9182    3.2585    0.0000 H   0  0  0  0  0  0  0  0  0  0  0  0
    7.5744    4.0325    0.0000 H   0  0  0  0  0  0  0  0  0  0  0  0
    7.2474    3.2183    0.0000 H   0  0  0  0  0  0  0  0  0  0  0  0
    9.3517   -0.8959    0.0000 H   0  0  0  0  0  0  0  0  0  0  0  0
    9.8926   -0.0195    0.0000 H   0  0  0  0  0  0  0  0  0  0  0  0
   10.5273    2.1433    0.0000 H   0  0  0  0  0  0  0  0  0  0  0  0
   10.2159    2.8770    0.0000 H   0  0  0  0  0  0  0  0  0  0  0  0
   10.0408    0.7556    0.0000 H   0  0  0  0  0  0  0  0  0  0  0  0
   10.4275    1.4108    0.0000 H   0  0  0  0  0  0  0  0  0  0  0  0
    6.4247    1.6887    0.0000 H   0  0  0  0  0  0  0  0  0  0  0  0
    5.7599    1.1968    0.0000 H   0  0  0  0  0  0  0  0  0  0  0  0
    6.3146   -0.7489    0.0000 H   0  0  0  0  0  0  0  0  0  0  0  0
    5.6196    0.5588    0.0000 H   0  0  0  0  0  0  0  0  0  0  0  0
    8.9280    5.0185    0.0000 H   0  0  0  0  0  0  0  0  0  0  0  0
    8.1157    5.3486    0.0000 H   0  0  0  0  0  0  0  0  0  0  0  0
    7.7856    4.5363    0.0000 H   0  0  0  0  0  0  0  0  0  0  0  0
    9.9080    3.6737    0.0000 H   0  0  0  0  0  0  0  0  0  0  0  0
   10.2381    4.4860    0.0000 H   0  0  0  0  0  0  0  0  0  0  0  0
    9.4258    4.8162    0.0000 H   0  0  0  0  0  0  0  0  0  0  0  0
    7.8948   -0.9961    0.0000 H   0  0  0  0  0  0  0  0  0  0  0  0
    8.6760   -1.3942    0.0000 H   0  0  0  0  0  0  0  0  0  0  0  0
    9.0741   -0.6129    0.0000 H   0  0  0  0  0  0  0  0  0  0  0  0
    6.6368    1.7993    0.0000 H   0  0  0  0  0  0  0  0  0  0  0  0
    4.6462    0.2262    0.0000 H   0  0  0  0  0  0  0  0  0  0  0  0
    6.0010   -1.3474    0.0000 H   0  0  0  0  0  0  0  0  0  0  0  0
    6.0010   -3.5874    0.0000 H   0  0  0  0  0  0  0  0  0  0  0  0
    4.5981   -3.7774    0.0000 H   0  0  0  0  0  0  0  0  0  0  0  0
    4.2690   -1.3474    0.0000 H   0  0  0  0  0  0  0  0  0  0  0  0
    4.2690   -3.5874    0.0000 H   0  0  0  0  0  0  0  0  0  0  0  0
    6.8671   -4.0874    0.0000 H   0  0  0  0  0  0  0  0  0  0  0  0
    3.8015   -0.9925    0.0000 H   0  0  0  0  0  0  0  0  0  0  0  0
    3.0044   -0.9925    0.0000 H   0  0  0  0  0  0  0  0  0  0  0  0
    4.5981   -4.7774    0.0000 H   0  0  0  0  0  0  0  0  0  0  0  0
    3.4030   -4.0874    0.0000 H   0  0  0  0  0  0  0  0  0  0  0  0
    2.0000   -1.6574    0.0000 H   0  0  0  0  0  0  0  0  0  0  0  0
 12  1  1  6  0  0  0
  1 53  1  0  0  0  0
 19  2  1  6  0  0  0
 24  2  1  1  0  0  0
 20  3  1  1  0  0  0
  3 54  1  0  0  0  0
  4 24  1  0  0  0  0
  4 27  1  0  0  0  0
 25  5  1  6  0  0  0
  5 60  1  0  0  0  0
 26  6  1  1  0  0  0
  6 63  1  0  0  0  0
 28  7  1  6  0  0  0
  7 64  1  0  0  0  0
  8 29  1  0  0  0  0
  8 65  1  0  0  0  0
  9 10  1  0  0  0  0
  9 12  1  0  0  0  0
  9 13  1  0  0  0  0
  9 30  1  6  0  0  0
 10 11  1  0  0  0  0
 10 16  1  0  0  0  0
 10 31  1  1  0  0  0
 11 13  1  0  0  0  0
 11 21  1  0  0  0  0
 11 22  1  0  0  0  0
 12 15  1  0  0  0  0
 12 18  1  0  0  0  0
 13 32  1  0  0  0  0
 13 33  1  0  0  0  0
 14 15  1  0  0  0  0
 14 17  1  0  0  0  0
 14 19  1  0  0  0  0
 14 23  1  6  0  0  0
 15 34  1  0  0  0  0
 15 35  1  0  0  0  0
 16 17  1  0  0  0  0
 16 36  1  0  0  0  0
 16 37  1  0  0  0  0
 17 38  1  0  0  0  0
 17 39  1  0  0  0  0
 18 20  1  0  0  0  0
 18 40  1  0  0  0  0
 18 41  1  0  0  0  0
 19 20  1  0  0  0  0
 19 42  1  0  0  0  0
 20 43  1  0  0  0  0
 21 44  1  0  0  0  0
 21 45  1  0  0  0  0
 21 46  1  0  0  0  0
 22 47  1  0  0  0  0
 22 48  1  0  0  0  0
 22 49  1  0  0  0  0
 23 50  1  0  0  0  0
 23 51  1  0  0  0  0
 23 52  1  0  0  0  0
 24 25  1  0  0  0  0
 24 55  1  0  0  0  0
 25 26  1  0  0  0  0
 25 56  1  0  0  0  0
 26 28  1  0  0  0  0
 26 57  1  0  0  0  0
 27 28  1  0  0  0  0
 27 29  1  1  0  0  0
 27 58  1  0  0  0  0
 28 59  1  0  0  0  0
 29 61  1  0  0  0  0
 29 62  1  0  0  0  0
M  END
> <PUBCHEM_COMPOUND_CID>
53493973

> <PUBCHEM_COMPOUND_CANONICALIZED>
1

> <PUBCHEM_CACTVS_COMPLEXITY>
628

> <PUBCHEM_CACTVS_HBOND_ACCEPTOR>
8

> <PUBCHEM_CACTVS_HBOND_DONOR>
6

> <PUBCHEM_CACTVS_ROTATABLE_BOND>
3

> <PUBCHEM_CACTVS_SUBSKEYS>
AAADcfB4PAAAAAAAAAAAAAAAAABgAAAAAAA0QAAABgAAAGAAAAAAGgAACAAAD1SwgAMCCAAABgAAAAAAAAAAAAAAAAAAAAAAAAAREAIAAAAiQAAFAAAHAAHA4PwPgAAAAAAAAABCAAYQABCAAAAAAAAAAA==

> <PUBCHEM_IUPAC_OPENEYE_NAME>
(2R,3R,4S,5S,6R)-2-[[(1R,2S,5R,8S,9S,10S)-1,10-dihydroxy-4,4,8-trimethyl-9-tricyclo[6.3.1.02,5]dodecanyl]oxy]-6-(hydroxymethyl)tetrahydropyran-3,4,5-triol

> <PUBCHEM_IUPAC_CAS_NAME>
(2R,3R,4S,5S,6R)-2-[[(1R,2S,5R,8S,9S,10S)-1,10-dihydroxy-4,4,8-trimethyl-9-tricyclo[6.3.1.02,5]dodecanyl]oxy]-6-(hydroxymethyl)oxane-3,4,5-triol

> <PUBCHEM_IUPAC_NAME_MARKUP>
(2<I>R</I>,3<I>R</I>,4<I>S</I>,5<I>S</I>,6<I>R</I>)-2-[[(1<I>R</I>,2<I>S</I>,5<I>R</I>,8<I>S</I>,9<I>S</I>,10<I>S</I>)-1,10-dihydroxy-4,4,8-trimethyl-9-tricyclo[6.3.1.0<SUP>2,5</SUP>]dodecanyl]oxy]-6-(hydroxymethyl)oxane-3,4,5-triol

> <PUBCHEM_IUPAC_NAME>
(2R,3R,4S,5S,6R)-2-[[(1R,2S,5R,8S,9S,10S)-1,10-dihydroxy-4,4,8-trimethyl-9-tricyclo[6.3.1.02,5]dodecanyl]oxy]-6-(hydroxymethyl)oxane-3,4,5-triol

> <PUBCHEM_IUPAC_SYSTEMATIC_NAME>
(2R,3S,4S,5R,6R)-2-(hydroxymethyl)-6-[[(1R,2S,5R,8S,9S,10S)-4,4,8-trimethyl-1,10-bis(oxidanyl)-9-tricyclo[6.3.1.02,5]dodecanyl]oxy]oxane-3,4,5-triol

> <PUBCHEM_IUPAC_TRADITIONAL_NAME>
(2R,3R,4S,5S,6R)-2-[[(1R,2S,5R,8S,9S,10S)-1,10-dihydroxy-4,4,8-trimethyl-9-tricyclo[6.3.1.02,5]dodecanyl]oxy]-6-methylol-tetrahydropyran-3,4,5-triol

> <PUBCHEM_IUPAC_INCHI>
InChI=1S/C21H36O8/c1-19(2)6-11-10(19)4-5-20(3)9-21(11,27)7-12(23)17(20)29-18-16(26)15(25)14(24)13(8-22)28-18/h10-18,22-27H,4-9H2,1-3H3/t10-,11+,12+,13-,14-,15+,16-,17-,18+,20+,21+/m1/s1

> <PUBCHEM_IUPAC_INCHIKEY>
QWMTVQXNDDCJLI-DJCJRAGKSA-N

> <PUBCHEM_XLOGP3_AA>
0.2

> <PUBCHEM_EXACT_MASS>
416.24101810

> <PUBCHEM_MOLECULAR_FORMULA>
C21H36O8

> <PUBCHEM_MOLECULAR_WEIGHT>
416.5

> <PUBCHEM_OPENEYE_CAN_SMILES>
CC1(CC2C1CCC3(CC2(CC(C3OC4C(C(C(C(O4)CO)O)O)O)O)O)C)C

> <PUBCHEM_OPENEYE_ISO_SMILES>
C[C@]12CC[C@@H]3[C@H](CC3(C)C)[C@@](C1)(C[C@@H]([C@H]2O[C@H]4[C@@H]([C@H]([C@@H]([C@H](O4)CO)O)O)O)O)O

> <PUBCHEM_CACTVS_TPSA>
140

> <PUBCHEM_MONOISOTOPIC_WEIGHT>
416.24101810

> <PUBCHEM_TOTAL_CHARGE>
0

> <PUBCHEM_HEAVY_ATOM_COUNT>
29

> <PUBCHEM_ATOM_DEF_STEREO_COUNT>
11

> <PUBCHEM_ATOM_UDEF_STEREO_COUNT>
0

> <PUBCHEM_BOND_DEF_STEREO_COUNT>
0

> <PUBCHEM_BOND_UDEF_STEREO_COUNT>
0

> <PUBCHEM_ISOTOPIC_ATOM_COUNT>
0

> <PUBCHEM_COMPONENT_COUNT>
1

> <PUBCHEM_CACTVS_TAUTO_COUNT>
-1

> <PUBCHEM_COORDINATE_TYPE>
1
5
255

> <PUBCHEM_BONDANNOTATIONS>
12  1  6
10  31  5
14  23  6
19  2  6
24  2  5
27  29  5
20  3  5
25  5  6
26  6  5
28  7  6
9  30  6

$$$$
