 
  -OEChem-10192103562D

 66 68  0     1  0  0  0  0  0999 V2000
   11.3923    0.7306    0.0000 O   0  0  0  0  0  0  0  0  0  0  0  0
   12.3923   -0.2694    0.0000 O   0  0  0  0  0  0  0  0  0  0  0  0
   10.6603   -0.2694    0.0000 O   0  0  0  0  0  0  0  0  0  0  0  0
   13.6524    1.9906    0.0000 O   0  0  0  0  0  0  0  0  0  0  0  0
   11.8923    3.2694    0.0000 O   0  0  0  0  0  0  0  0  0  0  0  0
   12.3923   -2.2694    0.0000 O   0  0  0  0  0  0  0  0  0  0  0  0
   10.6603   -3.2694    0.0000 O   0  0  0  0  0  0  0  0  0  0  0  0
    8.9282   -2.2694    0.0000 O   0  0  0  0  0  0  0  0  0  0  0  0
   14.0865    1.0907    0.0000 O   0  0  0  0  0  0  0  0  0  0  0  0
    9.9243    2.9688    0.0000 O   0  0  0  0  0  0  0  0  0  0  0  0
    8.0622   -0.7694    0.0000 O   0  0  0  0  0  0  0  0  0  0  0  0
    7.1962    0.7306    0.0000 O   0  0  0  0  0  0  0  0  0  0  0  0
    2.0000   -0.2694    0.0000 O   0  0  0  0  0  0  0  0  0  0  0  0
    2.0000   -2.2694    0.0000 O   0  0  0  0  0  0  0  0  0  0  0  0
   12.3923    0.7306    0.0000 C   0  0  1  0  0  0  0  0  0  0  0  0
   12.7013    1.6816    0.0000 C   0  0  2  0  0  0  0  0  0  0  0  0
   11.8923    2.2694    0.0000 C   0  0  1  0  0  0  0  0  0  0  0  0
   11.0833    1.6816    0.0000 C   0  0  1  0  0  0  0  0  0  0  0  0
   11.5263   -0.7694    0.0000 C   0  0  1  0  0  0  0  0  0  0  0  0
   11.5263   -1.7694    0.0000 C   0  0  1  0  0  0  0  0  0  0  0  0
   10.6603   -2.2694    0.0000 C   0  0  2  0  0  0  0  0  0  0  0  0
    9.7942   -1.7694    0.0000 C   0  0  1  0  0  0  0  0  0  0  0  0
    9.7942   -0.7694    0.0000 C   0  0  1  0  0  0  0  0  0  0  0  0
   13.3434    0.4216    0.0000 C   0  0  0  0  0  0  0  0  0  0  0  0
   10.1322    1.9906    0.0000 C   0  0  0  0  0  0  0  0  0  0  0  0
    8.9282   -0.2694    0.0000 C   0  0  0  0  0  0  0  0  0  0  0  0
    7.1962   -0.2694    0.0000 C   0  0  0  0  0  0  0  0  0  0  0  0
    6.3301   -0.7694    0.0000 C   0  0  0  0  0  0  0  0  0  0  0  0
    5.4641   -0.2694    0.0000 C   0  0  0  0  0  0  0  0  0  0  0  0
    4.5981   -0.7694    0.0000 C   0  0  0  0  0  0  0  0  0  0  0  0
    3.7320   -0.2694    0.0000 C   0  0  0  0  0  0  0  0  0  0  0  0
    4.5981   -1.7694    0.0000 C   0  0  0  0  0  0  0  0  0  0  0  0
    2.8660   -0.7694    0.0000 C   0  0  0  0  0  0  0  0  0  0  0  0
    3.7320   -2.2694    0.0000 C   0  0  0  0  0  0  0  0  0  0  0  0
    2.8660   -1.7694    0.0000 C   0  0  0  0  0  0  0  0  0  0  0  0
    2.0000    0.7306    0.0000 C   0  0  0  0  0  0  0  0  0  0  0  0
   12.7983    2.2940    0.0000 H   0  0  0  0  0  0  0  0  0  0  0  0
   12.4447    2.5509    0.0000 H   0  0  0  0  0  0  0  0  0  0  0  0
   10.6449    1.2432    0.0000 H   0  0  0  0  0  0  0  0  0  0  0  0
   11.5263   -0.1494    0.0000 H   0  0  0  0  0  0  0  0  0  0  0  0
   11.5263   -2.3894    0.0000 H   0  0  0  0  0  0  0  0  0  0  0  0
   10.1233   -2.5794    0.0000 H   0  0  0  0  0  0  0  0  0  0  0  0
    9.2573   -1.4594    0.0000 H   0  0  0  0  0  0  0  0  0  0  0  0
    9.7942   -0.1494    0.0000 H   0  0  0  0  0  0  0  0  0  0  0  0
   13.0523   -0.1259    0.0000 H   0  0  0  0  0  0  0  0  0  0  0  0
   13.8319    0.0399    0.0000 H   0  0  0  0  0  0  0  0  0  0  0  0
    9.5126    1.9690    0.0000 H   0  0  0  0  0  0  0  0  0  0  0  0
   10.0459    1.3767    0.0000 H   0  0  0  0  0  0  0  0  0  0  0  0
    9.3267    0.2055    0.0000 H   0  0  0  0  0  0  0  0  0  0  0  0
    8.5297    0.2055    0.0000 H   0  0  0  0  0  0  0  0  0  0  0  0
   13.7813    2.5971    0.0000 H   0  0  0  0  0  0  0  0  0  0  0  0
   12.4292    3.5794    0.0000 H   0  0  0  0  0  0  0  0  0  0  0  0
   12.3923   -2.8894    0.0000 H   0  0  0  0  0  0  0  0  0  0  0  0
   10.1233   -3.5794    0.0000 H   0  0  0  0  0  0  0  0  0  0  0  0
    8.9282   -2.8894    0.0000 H   0  0  0  0  0  0  0  0  0  0  0  0
   14.6762    0.8991    0.0000 H   0  0  0  0  0  0  0  0  0  0  0  0
    9.3347    3.1604    0.0000 H   0  0  0  0  0  0  0  0  0  0  0  0
    6.3301   -1.3894    0.0000 H   0  0  0  0  0  0  0  0  0  0  0  0
    5.4641    0.3506    0.0000 H   0  0  0  0  0  0  0  0  0  0  0  0
    3.7320    0.3506    0.0000 H   0  0  0  0  0  0  0  0  0  0  0  0
    5.1350   -2.0794    0.0000 H   0  0  0  0  0  0  0  0  0  0  0  0
    3.7320   -2.8894    0.0000 H   0  0  0  0  0  0  0  0  0  0  0  0
    2.0000   -2.8894    0.0000 H   0  0  0  0  0  0  0  0  0  0  0  0
    2.6200    0.7306    0.0000 H   0  0  0  0  0  0  0  0  0  0  0  0
    2.0000    1.3506    0.0000 H   0  0  0  0  0  0  0  0  0  0  0  0
    1.3800    0.7306    0.0000 H   0  0  0  0  0  0  0  0  0  0  0  0
  1 15  1  0  0  0  0
  1 18  1  0  0  0  0
 15  2  1  6  0  0  0
 19  2  1  6  0  0  0
  3 19  1  0  0  0  0
  3 23  1  0  0  0  0
 16  4  1  6  0  0  0
  4 51  1  0  0  0  0
 17  5  1  1  0  0  0
  5 52  1  0  0  0  0
 20  6  1  6  0  0  0
  6 53  1  0  0  0  0
 21  7  1  1  0  0  0
  7 54  1  0  0  0  0
 22  8  1  6  0  0  0
  8 55  1  0  0  0  0
  9 24  1  0  0  0  0
  9 56  1  0  0  0  0
 10 25  1  0  0  0  0
 10 57  1  0  0  0  0
 11 26  1  0  0  0  0
 11 27  1  0  0  0  0
 12 27  2  0  0  0  0
 13 33  1  0  0  0  0
 13 36  1  0  0  0  0
 14 35  1  0  0  0  0
 14 63  1  0  0  0  0
 15 16  1  0  0  0  0
 15 24  1  0  0  0  0
 16 17  1  0  0  0  0
 16 37  1  0  0  0  0
 17 18  1  0  0  0  0
 17 38  1  0  0  0  0
 18 25  1  6  0  0  0
 18 39  1  0  0  0  0
 19 20  1  0  0  0  0
 19 40  1  0  0  0  0
 20 21  1  0  0  0  0
 20 41  1  0  0  0  0
 21 22  1  0  0  0  0
 21 42  1  0  0  0  0
 22 23  1  0  0  0  0
 22 43  1  0  0  0  0
 23 26  1  1  0  0  0
 23 44  1  0  0  0  0
 24 45  1  0  0  0  0
 24 46  1  0  0  0  0
 25 47  1  0  0  0  0
 25 48  1  0  0  0  0
 26 49  1  0  0  0  0
 26 50  1  0  0  0  0
 27 28  1  0  0  0  0
 28 29  2  0  0  0  0
 28 58  1  0  0  0  0
 29 30  1  0  0  0  0
 29 59  1  0  0  0  0
 30 31  2  0  0  0  0
 30 32  1  0  0  0  0
 31 33  1  0  0  0  0
 31 60  1  0  0  0  0
 32 34  2  0  0  0  0
 32 61  1  0  0  0  0
 33 35  2  0  0  0  0
 34 35  1  0  0  0  0
 34 62  1  0  0  0  0
 36 64  1  0  0  0  0
 36 65  1  0  0  0  0
 36 66  1  0  0  0  0
M  END
> <PUBCHEM_COMPOUND_CID>
6325724

> <PUBCHEM_COMPOUND_CANONICALIZED>
1

> <PUBCHEM_CACTVS_COMPLEXITY>
750

> <PUBCHEM_CACTVS_HBOND_ACCEPTOR>
14

> <PUBCHEM_CACTVS_HBOND_DONOR>
8

> <PUBCHEM_CACTVS_ROTATABLE_BOND>
10

> <PUBCHEM_CACTVS_SUBSKEYS>
AAADceB4PAAAAAAAAAAAAAAAAAAAASAAAAA0QAAAAAAAAAABAAAAGgAACAAADBSwmAMyDoAABgCIAiDSCAACCAAgIAAIiAAGiMgdNiKGMRqicCMlwBEPuYfA4BwOIAABAAAAQABAAAIAAACAAAAAAAAAAA==

> <PUBCHEM_IUPAC_OPENEYE_NAME>
[(2R,3S,4S,5R,6R)-6-[(2S,3S,4S,5R)-3,4-dihydroxy-2,5-bis(hydroxymethyl)tetrahydrofuran-2-yl]oxy-3,4,5-trihydroxy-tetrahydropyran-2-yl]methyl (E)-3-(4-hydroxy-3-methoxy-phenyl)prop-2-enoate

> <PUBCHEM_IUPAC_CAS_NAME>
(E)-3-(4-hydroxy-3-methoxyphenyl)-2-propenoic acid [(2R,3S,4S,5R,6R)-6-[[(2S,3S,4S,5R)-3,4-dihydroxy-2,5-bis(hydroxymethyl)-2-oxolanyl]oxy]-3,4,5-trihydroxy-2-oxanyl]methyl ester

> <PUBCHEM_IUPAC_NAME_MARKUP>
[(2<I>R</I>,3<I>S</I>,4<I>S</I>,5<I>R</I>,6<I>R</I>)-6-[(2<I>S</I>,3<I>S</I>,4<I>S</I>,5<I>R</I>)-3,4-dihydroxy-2,5-bis(hydroxymethyl)oxolan-2-yl]oxy-3,4,5-trihydroxyoxan-2-yl]methyl (<I>E</I>)-3-(4-hydroxy-3-methoxyphenyl)prop-2-enoate

> <PUBCHEM_IUPAC_NAME>
[(2R,3S,4S,5R,6R)-6-[(2S,3S,4S,5R)-3,4-dihydroxy-2,5-bis(hydroxymethyl)oxolan-2-yl]oxy-3,4,5-trihydroxyoxan-2-yl]methyl (E)-3-(4-hydroxy-3-methoxyphenyl)prop-2-enoate

> <PUBCHEM_IUPAC_SYSTEMATIC_NAME>
[(2R,3S,4S,5R,6R)-6-[(2S,3S,4S,5R)-2,5-bis(hydroxymethyl)-3,4-bis(oxidanyl)oxolan-2-yl]oxy-3,4,5-tris(oxidanyl)oxan-2-yl]methyl (E)-3-(3-methoxy-4-oxidanyl-phenyl)prop-2-enoate

> <PUBCHEM_IUPAC_TRADITIONAL_NAME>
(E)-3-(4-hydroxy-3-methoxy-phenyl)acrylic acid [(2R,3S,4S,5R,6R)-6-[(2S,3S,4S,5R)-3,4-dihydroxy-2,5-dimethylol-tetrahydrofuran-2-yl]oxy-3,4,5-trihydroxy-tetrahydropyran-2-yl]methyl ester

> <PUBCHEM_IUPAC_INCHI>
InChI=1S/C22H30O14/c1-32-12-6-10(2-4-11(12)25)3-5-15(26)33-8-14-16(27)18(29)19(30)21(34-14)36-22(9-24)20(31)17(28)13(7-23)35-22/h2-6,13-14,16-21,23-25,27-31H,7-9H2,1H3/b5-3+/t13-,14-,16-,17-,18+,19-,20+,21-,22+/m1/s1

> <PUBCHEM_IUPAC_INCHIKEY>
XMBZZLUIFFOAHR-YQTDNFGYSA-N

> <PUBCHEM_XLOGP3>
-2

> <PUBCHEM_EXACT_MASS>
518.16355563

> <PUBCHEM_MOLECULAR_FORMULA>
C22H30O14

> <PUBCHEM_MOLECULAR_WEIGHT>
518.5

> <PUBCHEM_OPENEYE_CAN_SMILES>
COC1=C(C=CC(=C1)C=CC(=O)OCC2C(C(C(C(O2)OC3(C(C(C(O3)CO)O)O)CO)O)O)O)O

> <PUBCHEM_OPENEYE_ISO_SMILES>
COC1=C(C=CC(=C1)/C=C/C(=O)OC[C@@H]2[C@H]([C@@H]([C@H]([C@H](O2)O[C@]3([C@H]([C@@H]([C@H](O3)CO)O)O)CO)O)O)O)O

> <PUBCHEM_CACTVS_TPSA>
225

> <PUBCHEM_MONOISOTOPIC_WEIGHT>
518.16355563

> <PUBCHEM_TOTAL_CHARGE>
0

> <PUBCHEM_HEAVY_ATOM_COUNT>
36

> <PUBCHEM_ATOM_DEF_STEREO_COUNT>
9

> <PUBCHEM_ATOM_UDEF_STEREO_COUNT>
0

> <PUBCHEM_BOND_DEF_STEREO_COUNT>
1

> <PUBCHEM_BOND_UDEF_STEREO_COUNT>
0

> <PUBCHEM_ISOTOPIC_ATOM_COUNT>
0

> <PUBCHEM_COMPONENT_COUNT>
1

> <PUBCHEM_CACTVS_TAUTO_COUNT>
-1

> <PUBCHEM_COORDINATE_TYPE>
1
5
255

> <PUBCHEM_BONDANNOTATIONS>
18  25  6
15  2  6
19  2  6
23  26  5
30  31  8
30  32  8
31  33  8
32  34  8
33  35  8
34  35  8
16  4  6
17  5  5
20  6  6
21  7  5
22  8  6

$$$$
