 
  -OEChem-10192104392D

 46 46  0     0  0  0  0  0  0999 V2000
    5.1350    1.3450    0.0000 O   0  0  0  0  0  0  0  0  0  0  0  0
    2.5369   -0.1550    0.0000 O   0  0  0  0  0  0  0  0  0  0  0  0
    3.4030    1.3450    0.0000 O   0  0  0  0  0  0  0  0  0  0  0  0
   10.3312    0.3450    0.0000 C   0  0  0  0  0  0  0  0  0  0  0  0
    9.4651   -0.1550    0.0000 C   0  0  0  0  0  0  0  0  0  0  0  0
   11.1972   -0.1550    0.0000 C   0  0  0  0  0  0  0  0  0  0  0  0
    8.5991    0.3450    0.0000 C   0  0  0  0  0  0  0  0  0  0  0  0
   12.0632    0.3450    0.0000 C   0  0  0  0  0  0  0  0  0  0  0  0
    7.7331   -0.1550    0.0000 C   0  0  0  0  0  0  0  0  0  0  0  0
   12.9292   -0.1550    0.0000 C   0  0  0  0  0  0  0  0  0  0  0  0
    6.8671    0.3450    0.0000 C   0  0  0  0  0  0  0  0  0  0  0  0
   13.7953    0.3450    0.0000 C   0  0  0  0  0  0  0  0  0  0  0  0
    6.0010   -0.1550    0.0000 C   0  0  0  0  0  0  0  0  0  0  0  0
   14.6613   -0.1550    0.0000 C   0  0  0  0  0  0  0  0  0  0  0  0
    5.1350    0.3450    0.0000 C   0  0  0  0  0  0  0  0  0  0  0  0
    6.0010   -1.1550    0.0000 C   0  0  0  0  0  0  0  0  0  0  0  0
    4.2690   -0.1550    0.0000 C   0  0  0  0  0  0  0  0  0  0  0  0
    5.1350   -1.6550    0.0000 C   0  0  0  0  0  0  0  0  0  0  0  0
    4.2690   -1.1550    0.0000 C   0  0  0  0  0  0  0  0  0  0  0  0
    3.4030    0.3450    0.0000 C   0  0  0  0  0  0  0  0  0  0  0  0
   10.7297    0.8199    0.0000 H   0  0  0  0  0  0  0  0  0  0  0  0
    9.9326    0.8199    0.0000 H   0  0  0  0  0  0  0  0  0  0  0  0
    9.0666   -0.6299    0.0000 H   0  0  0  0  0  0  0  0  0  0  0  0
    9.8637   -0.6299    0.0000 H   0  0  0  0  0  0  0  0  0  0  0  0
   10.7987   -0.6299    0.0000 H   0  0  0  0  0  0  0  0  0  0  0  0
   11.5957   -0.6299    0.0000 H   0  0  0  0  0  0  0  0  0  0  0  0
    8.9976    0.8199    0.0000 H   0  0  0  0  0  0  0  0  0  0  0  0
    8.2006    0.8199    0.0000 H   0  0  0  0  0  0  0  0  0  0  0  0
   12.4617    0.8199    0.0000 H   0  0  0  0  0  0  0  0  0  0  0  0
   11.6647    0.8199    0.0000 H   0  0  0  0  0  0  0  0  0  0  0  0
    7.3346   -0.6299    0.0000 H   0  0  0  0  0  0  0  0  0  0  0  0
    8.1316   -0.6299    0.0000 H   0  0  0  0  0  0  0  0  0  0  0  0
   12.5307   -0.6299    0.0000 H   0  0  0  0  0  0  0  0  0  0  0  0
   13.3278   -0.6299    0.0000 H   0  0  0  0  0  0  0  0  0  0  0  0
    7.2656    0.8199    0.0000 H   0  0  0  0  0  0  0  0  0  0  0  0
    6.4685    0.8199    0.0000 H   0  0  0  0  0  0  0  0  0  0  0  0
   14.1938    0.8199    0.0000 H   0  0  0  0  0  0  0  0  0  0  0  0
   13.3967    0.8199    0.0000 H   0  0  0  0  0  0  0  0  0  0  0  0
   14.3513   -0.6919    0.0000 H   0  0  0  0  0  0  0  0  0  0  0  0
   15.1982   -0.4650    0.0000 H   0  0  0  0  0  0  0  0  0  0  0  0
   14.9713    0.3819    0.0000 H   0  0  0  0  0  0  0  0  0  0  0  0
    6.5380   -1.4650    0.0000 H   0  0  0  0  0  0  0  0  0  0  0  0
    5.1350   -2.2750    0.0000 H   0  0  0  0  0  0  0  0  0  0  0  0
    3.7320   -1.4650    0.0000 H   0  0  0  0  0  0  0  0  0  0  0  0
    5.6720    1.6550    0.0000 H   0  0  0  0  0  0  0  0  0  0  0  0
    2.0000    0.1550    0.0000 H   0  0  0  0  0  0  0  0  0  0  0  0
  1 15  1  0  0  0  0
  1 45  1  0  0  0  0
  2 20  1  0  0  0  0
  2 46  1  0  0  0  0
  3 20  2  0  0  0  0
  4  5  1  0  0  0  0
  4  6  1  0  0  0  0
  4 21  1  0  0  0  0
  4 22  1  0  0  0  0
  5  7  1  0  0  0  0
  5 23  1  0  0  0  0
  5 24  1  0  0  0  0
  6  8  1  0  0  0  0
  6 25  1  0  0  0  0
  6 26  1  0  0  0  0
  7  9  1  0  0  0  0
  7 27  1  0  0  0  0
  7 28  1  0  0  0  0
  8 10  1  0  0  0  0
  8 29  1  0  0  0  0
  8 30  1  0  0  0  0
  9 11  1  0  0  0  0
  9 31  1  0  0  0  0
  9 32  1  0  0  0  0
 10 12  1  0  0  0  0
 10 33  1  0  0  0  0
 10 34  1  0  0  0  0
 11 13  1  0  0  0  0
 11 35  1  0  0  0  0
 11 36  1  0  0  0  0
 12 14  1  0  0  0  0
 12 37  1  0  0  0  0
 12 38  1  0  0  0  0
 13 15  2  0  0  0  0
 13 16  1  0  0  0  0
 14 39  1  0  0  0  0
 14 40  1  0  0  0  0
 14 41  1  0  0  0  0
 15 17  1  0  0  0  0
 16 18  2  0  0  0  0
 16 42  1  0  0  0  0
 17 19  2  0  0  0  0
 17 20  1  0  0  0  0
 18 19  1  0  0  0  0
 18 43  1  0  0  0  0
 19 44  1  0  0  0  0
M  END
> <PUBCHEM_COMPOUND_CID>
13366073

> <PUBCHEM_COMPOUND_CANONICALIZED>
1

> <PUBCHEM_CACTVS_COMPLEXITY>
265

> <PUBCHEM_CACTVS_HBOND_ACCEPTOR>
3

> <PUBCHEM_CACTVS_HBOND_DONOR>
2

> <PUBCHEM_CACTVS_ROTATABLE_BOND>
10

> <PUBCHEM_CACTVS_SUBSKEYS>
AAADceB4MAAAAAAAAAAAAAAAAAAAAAAAAAAwAAAAAAAAAAABAAAAGgAACAAADASAmAAyDoAAAgCIAiDSCAACAAAkIAAIiAEECMgIJzaCFRKAcUAl4BEImYeIyOCOAAACAAAIAAAAAAQAABAAAAAAAAAAAA==

> <PUBCHEM_IUPAC_OPENEYE_NAME>
3-decyl-2-hydroxy-benzoic acid

> <PUBCHEM_IUPAC_CAS_NAME>
3-decyl-2-hydroxybenzoic acid

> <PUBCHEM_IUPAC_NAME_MARKUP>
3-decyl-2-hydroxybenzoic acid

> <PUBCHEM_IUPAC_NAME>
3-decyl-2-hydroxybenzoic acid

> <PUBCHEM_IUPAC_SYSTEMATIC_NAME>
3-decyl-2-oxidanyl-benzoic acid

> <PUBCHEM_IUPAC_TRADITIONAL_NAME>
3-decyl-2-hydroxy-benzoic acid

> <PUBCHEM_IUPAC_INCHI>
InChI=1S/C17H26O3/c1-2-3-4-5-6-7-8-9-11-14-12-10-13-15(16(14)18)17(19)20/h10,12-13,18H,2-9,11H2,1H3,(H,19,20)

> <PUBCHEM_IUPAC_INCHIKEY>
ZIIVDQDGNNXUFN-UHFFFAOYSA-N

> <PUBCHEM_XLOGP3>
7.6

> <PUBCHEM_EXACT_MASS>
278.18819469

> <PUBCHEM_MOLECULAR_FORMULA>
C17H26O3

> <PUBCHEM_MOLECULAR_WEIGHT>
278.4

> <PUBCHEM_OPENEYE_CAN_SMILES>
CCCCCCCCCCC1=C(C(=CC=C1)C(=O)O)O

> <PUBCHEM_OPENEYE_ISO_SMILES>
CCCCCCCCCCC1=C(C(=CC=C1)C(=O)O)O

> <PUBCHEM_CACTVS_TPSA>
57.5

> <PUBCHEM_MONOISOTOPIC_WEIGHT>
278.18819469

> <PUBCHEM_TOTAL_CHARGE>
0

> <PUBCHEM_HEAVY_ATOM_COUNT>
20

> <PUBCHEM_ATOM_DEF_STEREO_COUNT>
0

> <PUBCHEM_ATOM_UDEF_STEREO_COUNT>
0

> <PUBCHEM_BOND_DEF_STEREO_COUNT>
0

> <PUBCHEM_BOND_UDEF_STEREO_COUNT>
0

> <PUBCHEM_ISOTOPIC_ATOM_COUNT>
0

> <PUBCHEM_COMPONENT_COUNT>
1

> <PUBCHEM_CACTVS_TAUTO_COUNT>
-1

> <PUBCHEM_COORDINATE_TYPE>
1
5
255

> <PUBCHEM_BONDANNOTATIONS>
13  15  8
13  16  8
15  17  8
16  18  8
17  19  8
18  19  8

$$$$
