 
  -OEChem-10192104422D

 44 43  0     1  0  0  0  0  0999 V2000
    3.4030    2.8170    0.0000 P   0  0  0  0  0  0  0  0  0  0  0  0
    5.1350    0.8170    0.0000 O   0  0  0  0  0  0  0  0  0  0  0  0
    6.8671    2.8170    0.0000 O   0  0  0  0  0  0  0  0  0  0  0  0
    4.2690    2.3170    0.0000 O   0  0  0  0  0  0  0  0  0  0  0  0
    6.0010   -0.6830    0.0000 O   0  0  0  0  0  0  0  0  0  0  0  0
    7.7331    1.3170    0.0000 O   0  0  0  0  0  0  0  0  0  0  0  0
    2.5369    3.3170    0.0000 O   0  0  0  0  0  0  0  0  0  0  0  0
    2.9030    1.9510    0.0000 O   0  0  0  0  0  0  0  0  0  0  0  0
    3.9030    3.6830    0.0000 O   0  0  0  0  0  0  0  0  0  0  0  0
    4.2690   -1.6830    0.0000 C   0  0  0  0  0  0  0  0  0  0  0  0
    3.4030   -2.1830    0.0000 C   0  0  0  0  0  0  0  0  0  0  0  0
    6.0010    2.3170    0.0000 C   0  0  2  0  0  0  0  0  0  0  0  0
    4.2690   -0.6830    0.0000 C   0  0  0  0  0  0  0  0  0  0  0  0
    3.4030   -3.1830    0.0000 C   0  0  0  0  0  0  0  0  0  0  0  0
    6.0010    1.3170    0.0000 C   0  0  0  0  0  0  0  0  0  0  0  0
    5.1350    2.8170    0.0000 C   0  0  0  0  0  0  0  0  0  0  0  0
    5.1350   -0.1830    0.0000 C   0  0  0  0  0  0  0  0  0  0  0  0
    2.5369   -3.6830    0.0000 C   0  0  0  0  0  0  0  0  0  0  0  0
    7.7331    2.3170    0.0000 C   0  0  0  0  0  0  0  0  0  0  0  0
    8.5991    2.8170    0.0000 C   0  0  0  0  0  0  0  0  0  0  0  0
    9.4651    2.3170    0.0000 C   0  0  0  0  0  0  0  0  0  0  0  0
    4.4810   -2.2656    0.0000 H   0  0  0  0  0  0  0  0  0  0  0  0
    4.8796   -1.5754    0.0000 H   0  0  0  0  0  0  0  0  0  0  0  0
    3.1909   -1.6004    0.0000 H   0  0  0  0  0  0  0  0  0  0  0  0
    2.7924   -2.2907    0.0000 H   0  0  0  0  0  0  0  0  0  0  0  0
    6.5380    2.0070    0.0000 H   0  0  0  0  0  0  0  0  0  0  0  0
    4.0569   -0.1004    0.0000 H   0  0  0  0  0  0  0  0  0  0  0  0
    3.6584   -0.7907    0.0000 H   0  0  0  0  0  0  0  0  0  0  0  0
    3.6150   -3.7656    0.0000 H   0  0  0  0  0  0  0  0  0  0  0  0
    4.0135   -3.0753    0.0000 H   0  0  0  0  0  0  0  0  0  0  0  0
    6.2131    0.7344    0.0000 H   0  0  0  0  0  0  0  0  0  0  0  0
    6.6116    1.4246    0.0000 H   0  0  0  0  0  0  0  0  0  0  0  0
    5.5335    3.2919    0.0000 H   0  0  0  0  0  0  0  0  0  0  0  0
    4.7365    3.2919    0.0000 H   0  0  0  0  0  0  0  0  0  0  0  0
    2.2269   -3.1461    0.0000 H   0  0  0  0  0  0  0  0  0  0  0  0
    2.0000   -3.9930    0.0000 H   0  0  0  0  0  0  0  0  0  0  0  0
    2.8469   -4.2200    0.0000 H   0  0  0  0  0  0  0  0  0  0  0  0
    8.9976    3.2919    0.0000 H   0  0  0  0  0  0  0  0  0  0  0  0
    8.2006    3.2919    0.0000 H   0  0  0  0  0  0  0  0  0  0  0  0
    9.1551    1.7800    0.0000 H   0  0  0  0  0  0  0  0  0  0  0  0
   10.0021    2.0070    0.0000 H   0  0  0  0  0  0  0  0  0  0  0  0
    9.7751    2.8539    0.0000 H   0  0  0  0  0  0  0  0  0  0  0  0
    2.0000    3.0070    0.0000 H   0  0  0  0  0  0  0  0  0  0  0  0
    2.2830    1.9510    0.0000 H   0  0  0  0  0  0  0  0  0  0  0  0
  1  4  1  0  0  0  0
  1  7  1  0  0  0  0
  1  8  1  0  0  0  0
  1  9  2  0  0  0  0
  2 15  1  0  0  0  0
  2 17  1  0  0  0  0
 12  3  1  6  0  0  0
  3 19  1  0  0  0  0
  4 16  1  0  0  0  0
  5 17  2  0  0  0  0
  6 19  2  0  0  0  0
  7 43  1  0  0  0  0
  8 44  1  0  0  0  0
 10 11  1  0  0  0  0
 10 13  1  0  0  0  0
 10 22  1  0  0  0  0
 10 23  1  0  0  0  0
 11 14  1  0  0  0  0
 11 24  1  0  0  0  0
 11 25  1  0  0  0  0
 12 15  1  0  0  0  0
 12 16  1  0  0  0  0
 12 26  1  0  0  0  0
 13 17  1  0  0  0  0
 13 27  1  0  0  0  0
 13 28  1  0  0  0  0
 14 18  1  0  0  0  0
 14 29  1  0  0  0  0
 14 30  1  0  0  0  0
 15 31  1  0  0  0  0
 15 32  1  0  0  0  0
 16 33  1  0  0  0  0
 16 34  1  0  0  0  0
 18 35  1  0  0  0  0
 18 36  1  0  0  0  0
 18 37  1  0  0  0  0
 19 20  1  0  0  0  0
 20 21  1  0  0  0  0
 20 38  1  0  0  0  0
 20 39  1  0  0  0  0
 21 40  1  0  0  0  0
 21 41  1  0  0  0  0
 21 42  1  0  0  0  0
M  END
> <PUBCHEM_COMPOUND_CID>
117072432

> <PUBCHEM_COMPOUND_CANONICALIZED>
1

> <PUBCHEM_CACTVS_COMPLEXITY>
364

> <PUBCHEM_CACTVS_HBOND_ACCEPTOR>
8

> <PUBCHEM_CACTVS_HBOND_DONOR>
2

> <PUBCHEM_CACTVS_ROTATABLE_BOND>
13

> <PUBCHEM_CACTVS_SUBSKEYS>
AAADceBwPAIAAAAAAAAAAAAAAAAAAAAAAAAAAAAAAAAAAAAAAAAAGgAACCAACBSggAICCAAABRAIQACQCIAAAAAAAAAAAAEAAAABABIAAAACAAAFAAACAAGISAAAAAAAAAAAAAAAAAAAAAAAAAAAAAAAAA==

> <PUBCHEM_IUPAC_OPENEYE_NAME>
[(2R)-3-phosphonooxy-2-propanoyloxy-propyl] hexanoate

> <PUBCHEM_IUPAC_CAS_NAME>
hexanoic acid [(2R)-2-(1-oxopropoxy)-3-phosphonooxypropyl] ester

> <PUBCHEM_IUPAC_NAME_MARKUP>
[(2<I>R</I>)-3-phosphonooxy-2-propanoyloxypropyl] hexanoate

> <PUBCHEM_IUPAC_NAME>
[(2R)-3-phosphonooxy-2-propanoyloxypropyl] hexanoate

> <PUBCHEM_IUPAC_SYSTEMATIC_NAME>
[(2R)-3-phosphonooxy-2-propanoyloxy-propyl] hexanoate

> <PUBCHEM_IUPAC_TRADITIONAL_NAME>
hexanoic acid [(2R)-3-phosphonooxy-2-propionyloxy-propyl] ester

> <PUBCHEM_IUPAC_INCHI>
InChI=1S/C12H23O8P/c1-3-5-6-7-12(14)18-8-10(20-11(13)4-2)9-19-21(15,16)17/h10H,3-9H2,1-2H3,(H2,15,16,17)/t10-/m1/s1

> <PUBCHEM_IUPAC_INCHIKEY>
ONMNPJDXCSKWMN-SNVBAGLBSA-N

> <PUBCHEM_XLOGP3_AA>
0.7

> <PUBCHEM_EXACT_MASS>
326.11305469

> <PUBCHEM_MOLECULAR_FORMULA>
C12H23O8P

> <PUBCHEM_MOLECULAR_WEIGHT>
326.28

> <PUBCHEM_OPENEYE_CAN_SMILES>
CCCCCC(=O)OCC(COP(=O)(O)O)OC(=O)CC

> <PUBCHEM_OPENEYE_ISO_SMILES>
CCCCCC(=O)OC[C@H](COP(=O)(O)O)OC(=O)CC

> <PUBCHEM_CACTVS_TPSA>
119

> <PUBCHEM_MONOISOTOPIC_WEIGHT>
326.11305469

> <PUBCHEM_TOTAL_CHARGE>
0

> <PUBCHEM_HEAVY_ATOM_COUNT>
21

> <PUBCHEM_ATOM_DEF_STEREO_COUNT>
1

> <PUBCHEM_ATOM_UDEF_STEREO_COUNT>
0

> <PUBCHEM_BOND_DEF_STEREO_COUNT>
0

> <PUBCHEM_BOND_UDEF_STEREO_COUNT>
0

> <PUBCHEM_ISOTOPIC_ATOM_COUNT>
0

> <PUBCHEM_COMPONENT_COUNT>
1

> <PUBCHEM_CACTVS_TAUTO_COUNT>
-1

> <PUBCHEM_COORDINATE_TYPE>
1
5
255

> <PUBCHEM_BONDANNOTATIONS>
12  3  6

$$$$
