 
  -OEChem-10192103542D

 64 65  0     1  0  0  0  0  0999 V2000
    7.9690    0.3172    0.0000 O   0  0  0  0  0  0  0  0  0  0  0  0
    6.8671   -0.4834    0.0000 O   0  0  0  0  0  0  0  0  0  0  0  0
    9.9906    3.3028    0.0000 O   0  0  0  0  0  0  0  0  0  0  0  0
   12.8246    4.1034    0.0000 O   0  0  0  0  0  0  0  0  0  0  0  0
   11.0925    4.1034    0.0000 O   0  0  0  0  0  0  0  0  0  0  0  0
    2.5369    0.0166    0.0000 O   0  0  0  0  0  0  0  0  0  0  0  0
    6.8671   -1.4834    0.0000 O   0  0  0  0  0  0  0  0  0  0  0  0
    3.4030   -1.4834    0.0000 O   0  0  0  0  0  0  0  0  0  0  0  0
    6.0010    1.0166    0.0000 N   0  0  0  0  0  0  0  0  0  0  0  0
   11.1495    2.0156    0.0000 N   0  0  0  0  0  0  0  0  0  0  0  0
    8.5043    1.9645    0.0000 N   0  0  0  0  0  0  0  0  0  0  0  0
    5.1350   -1.4834    0.0000 N   0  0  0  0  0  0  0  0  0  0  0  0
    6.8671   -3.4834    0.0000 N   0  0  0  0  0  0  0  0  0  0  0  0
    6.8100    1.6044    0.0000 C   0  0  1  0  0  0  0  0  0  0  0  0
    6.5010    2.5554    0.0000 C   0  0  0  0  0  0  0  0  0  0  0  0
    5.5010    2.5554    0.0000 C   0  0  0  0  0  0  0  0  0  0  0  0
    5.1920    1.6044    0.0000 C   0  0  0  0  0  0  0  0  0  0  0  0
   11.9585    2.6034    0.0000 C   0  0  1  0  0  0  0  0  0  0  0  0
   12.7675    2.0156    0.0000 C   0  0  0  0  0  0  0  0  0  0  0  0
   11.4585    1.0646    0.0000 C   0  0  0  0  0  0  0  0  0  0  0  0
   12.4585    1.0646    0.0000 C   0  0  0  0  0  0  0  0  0  0  0  0
    7.7611    1.2954    0.0000 C   0  0  0  0  0  0  0  0  0  0  0  0
    9.4553    1.6555    0.0000 C   0  0  2  0  0  0  0  0  0  0  0  0
    6.0010    0.0166    0.0000 C   0  0  0  0  0  0  0  0  0  0  0  0
   10.1985    2.3246    0.0000 C   0  0  0  0  0  0  0  0  0  0  0  0
    5.1350   -0.4834    0.0000 C   0  0  2  0  0  0  0  0  0  0  0  0
   11.9585    3.6034    0.0000 C   0  0  0  0  0  0  0  0  0  0  0  0
    9.6632    0.6773    0.0000 C   0  0  0  0  0  0  0  0  0  0  0  0
    4.2690    0.0166    0.0000 C   0  0  0  0  0  0  0  0  0  0  0  0
    6.0010   -1.9834    0.0000 C   0  0  0  0  0  0  0  0  0  0  0  0
    3.4030   -0.4834    0.0000 C   0  0  0  0  0  0  0  0  0  0  0  0
    6.0010   -2.9834    0.0000 C   0  0  2  0  0  0  0  0  0  0  0  0
    5.1350   -3.4834    0.0000 C   0  0  0  0  0  0  0  0  0  0  0  0
    6.9070    0.9920    0.0000 H   0  0  0  0  0  0  0  0  0  0  0  0
    7.1075    2.6844    0.0000 H   0  0  0  0  0  0  0  0  0  0  0  0
    6.4362    3.1721    0.0000 H   0  0  0  0  0  0  0  0  0  0  0  0
    5.5658    3.1721    0.0000 H   0  0  0  0  0  0  0  0  0  0  0  0
    4.8946    2.6844    0.0000 H   0  0  0  0  0  0  0  0  0  0  0  0
    4.6256    1.8566    0.0000 H   0  0  0  0  0  0  0  0  0  0  0  0
    4.8820    1.0675    0.0000 H   0  0  0  0  0  0  0  0  0  0  0  0
   11.4061    2.8849    0.0000 H   0  0  0  0  0  0  0  0  0  0  0  0
   13.3339    1.7634    0.0000 H   0  0  0  0  0  0  0  0  0  0  0  0
   13.0775    2.5525    0.0000 H   0  0  0  0  0  0  0  0  0  0  0  0
   10.8521    0.9356    0.0000 H   0  0  0  0  0  0  0  0  0  0  0  0
   11.5233    0.4479    0.0000 H   0  0  0  0  0  0  0  0  0  0  0  0
   12.3937    0.4479    0.0000 H   0  0  0  0  0  0  0  0  0  0  0  0
   13.0650    0.9356    0.0000 H   0  0  0  0  0  0  0  0  0  0  0  0
    8.9946    1.2406    0.0000 H   0  0  0  0  0  0  0  0  0  0  0  0
    8.3753    2.5710    0.0000 H   0  0  0  0  0  0  0  0  0  0  0  0
    5.6720   -0.7934    0.0000 H   0  0  0  0  0  0  0  0  0  0  0  0
    9.0568    0.5484    0.0000 H   0  0  0  0  0  0  0  0  0  0  0  0
    9.7921    0.0709    0.0000 H   0  0  0  0  0  0  0  0  0  0  0  0
   10.2697    0.8062    0.0000 H   0  0  0  0  0  0  0  0  0  0  0  0
    4.6675    0.4916    0.0000 H   0  0  0  0  0  0  0  0  0  0  0  0
    3.8705    0.4916    0.0000 H   0  0  0  0  0  0  0  0  0  0  0  0
    4.5981   -1.7934    0.0000 H   0  0  0  0  0  0  0  0  0  0  0  0
   13.3615    3.7934    0.0000 H   0  0  0  0  0  0  0  0  0  0  0  0
    6.5380   -2.6734    0.0000 H   0  0  0  0  0  0  0  0  0  0  0  0
    4.8250   -2.9464    0.0000 H   0  0  0  0  0  0  0  0  0  0  0  0
    4.5981   -3.7934    0.0000 H   0  0  0  0  0  0  0  0  0  0  0  0
    5.4450   -4.0203    0.0000 H   0  0  0  0  0  0  0  0  0  0  0  0
    6.8671   -4.1034    0.0000 H   0  0  0  0  0  0  0  0  0  0  0  0
    7.4040   -3.1734    0.0000 H   0  0  0  0  0  0  0  0  0  0  0  0
    2.0000   -0.2934    0.0000 H   0  0  0  0  0  0  0  0  0  0  0  0
  1 22  2  0  0  0  0
  2 24  2  0  0  0  0
  3 25  2  0  0  0  0
  4 27  1  0  0  0  0
  4 57  1  0  0  0  0
  5 27  2  0  0  0  0
  6 31  1  0  0  0  0
  6 64  1  0  0  0  0
  7 30  2  0  0  0  0
  8 31  2  0  0  0  0
  9 14  1  0  0  0  0
  9 17  1  0  0  0  0
  9 24  1  0  0  0  0
 10 18  1  0  0  0  0
 10 20  1  0  0  0  0
 10 25  1  0  0  0  0
 11 22  1  0  0  0  0
 23 11  1  6  0  0  0
 11 49  1  0  0  0  0
 26 12  1  1  0  0  0
 12 30  1  0  0  0  0
 12 56  1  0  0  0  0
 32 13  1  1  0  0  0
 13 62  1  0  0  0  0
 13 63  1  0  0  0  0
 14 15  1  0  0  0  0
 14 22  1  1  0  0  0
 14 34  1  0  0  0  0
 15 16  1  0  0  0  0
 15 35  1  0  0  0  0
 15 36  1  0  0  0  0
 16 17  1  0  0  0  0
 16 37  1  0  0  0  0
 16 38  1  0  0  0  0
 17 39  1  0  0  0  0
 17 40  1  0  0  0  0
 18 19  1  0  0  0  0
 18 27  1  6  0  0  0
 18 41  1  0  0  0  0
 19 21  1  0  0  0  0
 19 42  1  0  0  0  0
 19 43  1  0  0  0  0
 20 21  1  0  0  0  0
 20 44  1  0  0  0  0
 20 45  1  0  0  0  0
 21 46  1  0  0  0  0
 21 47  1  0  0  0  0
 23 25  1  0  0  0  0
 23 28  1  0  0  0  0
 23 48  1  0  0  0  0
 24 26  1  0  0  0  0
 26 29  1  0  0  0  0
 26 50  1  0  0  0  0
 28 51  1  0  0  0  0
 28 52  1  0  0  0  0
 28 53  1  0  0  0  0
 29 31  1  0  0  0  0
 29 54  1  0  0  0  0
 29 55  1  0  0  0  0
 30 32  1  0  0  0  0
 32 33  1  0  0  0  0
 32 58  1  0  0  0  0
 33 59  1  0  0  0  0
 33 60  1  0  0  0  0
 33 61  1  0  0  0  0
M  END
> <PUBCHEM_COMPOUND_CID>
9825911

> <PUBCHEM_COMPOUND_CANONICALIZED>
1

> <PUBCHEM_CACTVS_COMPLEXITY>
818

> <PUBCHEM_CACTVS_HBOND_ACCEPTOR>
9

> <PUBCHEM_CACTVS_HBOND_DONOR>
5

> <PUBCHEM_CACTVS_ROTATABLE_BOND>
9

> <PUBCHEM_CACTVS_SUBSKEYS>
AAADceB7vAAAAAAAAAAAAAAAAAAAAWLAAAAAAAAAAAAAAAAAAAAAHgAQCAAACCjBgAQCCAPAAgAIAAGQGAAAAAAAAAAAAIGIAAACQBoAgCAUQAAGFgCQAAC/EQIAAAAAAAAAAAAAAAAAAAAAAAAAAAAAAA==

> <PUBCHEM_IUPAC_OPENEYE_NAME>
(2S)-1-[(2S)-2-[[(2S)-1-[(2S)-2-[[(2S)-2-aminopropanoyl]amino]-3-carboxy-propanoyl]pyrrolidine-2-carbonyl]amino]propanoyl]pyrrolidine-2-carboxylic acid

> <PUBCHEM_IUPAC_CAS_NAME>
(2S)-1-[(2S)-2-[[[(2S)-1-[(2S)-2-[[(2S)-2-amino-1-oxopropyl]amino]-3-carboxy-1-oxopropyl]-2-pyrrolidinyl]-oxomethyl]amino]-1-oxopropyl]-2-pyrrolidinecarboxylic acid

> <PUBCHEM_IUPAC_NAME_MARKUP>
(2<I>S</I>)-1-[(2<I>S</I>)-2-[[(2<I>S</I>)-1-[(2<I>S</I>)-2-[[(2<I>S</I>)-2-aminopropanoyl]amino]-3-carboxypropanoyl]pyrrolidine-2-carbonyl]amino]propanoyl]pyrrolidine-2-carboxylic acid

> <PUBCHEM_IUPAC_NAME>
(2S)-1-[(2S)-2-[[(2S)-1-[(2S)-2-[[(2S)-2-aminopropanoyl]amino]-3-carboxypropanoyl]pyrrolidine-2-carbonyl]amino]propanoyl]pyrrolidine-2-carboxylic acid

> <PUBCHEM_IUPAC_SYSTEMATIC_NAME>
(2S)-1-[(2S)-2-[[(2S)-1-[(2S)-2-[[(2S)-2-azanylpropanoyl]amino]-4-oxidanyl-4-oxidanylidene-butanoyl]pyrrolidin-2-yl]carbonylamino]propanoyl]pyrrolidine-2-carboxylic acid

> <PUBCHEM_IUPAC_TRADITIONAL_NAME>
(2S)-1-[(2S)-2-[[(2S)-1-[(2S)-2-[[(2S)-2-aminopropanoyl]amino]-3-carboxy-propanoyl]prolyl]amino]propanoyl]proline

> <PUBCHEM_IUPAC_INCHI>
InChI=1S/C20H31N5O8/c1-10(21)16(28)23-12(9-15(26)27)19(31)24-7-3-5-13(24)17(29)22-11(2)18(30)25-8-4-6-14(25)20(32)33/h10-14H,3-9,21H2,1-2H3,(H,22,29)(H,23,28)(H,26,27)(H,32,33)/t10-,11-,12-,13-,14-/m0/s1

> <PUBCHEM_IUPAC_INCHIKEY>
TWAKSBZUUTVLPP-PEDHHIEDSA-N

> <PUBCHEM_XLOGP3_AA>
-4.3

> <PUBCHEM_EXACT_MASS>
469.21726296

> <PUBCHEM_MOLECULAR_FORMULA>
C20H31N5O8

> <PUBCHEM_MOLECULAR_WEIGHT>
469.5

> <PUBCHEM_OPENEYE_CAN_SMILES>
CC(C(=O)NC(CC(=O)O)C(=O)N1CCCC1C(=O)NC(C)C(=O)N2CCCC2C(=O)O)N

> <PUBCHEM_OPENEYE_ISO_SMILES>
C[C@@H](C(=O)N[C@@H](CC(=O)O)C(=O)N1CCC[C@H]1C(=O)N[C@@H](C)C(=O)N2CCC[C@H]2C(=O)O)N

> <PUBCHEM_CACTVS_TPSA>
199

> <PUBCHEM_MONOISOTOPIC_WEIGHT>
469.21726296

> <PUBCHEM_TOTAL_CHARGE>
0

> <PUBCHEM_HEAVY_ATOM_COUNT>
33

> <PUBCHEM_ATOM_DEF_STEREO_COUNT>
5

> <PUBCHEM_ATOM_UDEF_STEREO_COUNT>
0

> <PUBCHEM_BOND_DEF_STEREO_COUNT>
0

> <PUBCHEM_BOND_UDEF_STEREO_COUNT>
0

> <PUBCHEM_ISOTOPIC_ATOM_COUNT>
0

> <PUBCHEM_COMPONENT_COUNT>
1

> <PUBCHEM_CACTVS_TAUTO_COUNT>
-1

> <PUBCHEM_COORDINATE_TYPE>
1
5
255

> <PUBCHEM_BONDANNOTATIONS>
23  11  6
26  12  5
32  13  5
14  22  5
18  27  6

$$$$
