 
  -OEChem-10192103472D

 96 99  0     1  0  0  0  0  0999 V2000
    6.0010    0.5000    0.0000 O   0  0  0  0  0  0  0  0  0  0  0  0
    6.8671   -1.0000    0.0000 O   0  0  0  0  0  0  0  0  0  0  0  0
    4.2690   -2.5000    0.0000 O   0  0  0  0  0  0  0  0  0  0  0  0
    7.7331    2.5000    0.0000 O   0  0  0  0  0  0  0  0  0  0  0  0
    9.4651    2.5000    0.0000 O   0  0  0  0  0  0  0  0  0  0  0  0
    6.0010   -3.5000    0.0000 O   0  0  0  0  0  0  0  0  0  0  0  0
    5.1350   -4.0000    0.0000 O   0  0  0  0  0  0  0  0  0  0  0  0
    9.4651    5.5000    0.0000 O   0  0  0  0  0  0  0  0  0  0  0  0
    7.7331   -0.5000    0.0000 O   0  0  0  0  0  0  0  0  0  0  0  0
    9.4651    0.5000    0.0000 O   0  0  0  0  0  0  0  0  0  0  0  0
    7.7331    3.5000    0.0000 O   0  0  0  0  0  0  0  0  0  0  0  0
    2.5369   -3.5000    0.0000 O   0  0  0  0  0  0  0  0  0  0  0  0
    7.7331   -3.5000    0.0000 O   0  0  0  0  0  0  0  0  0  0  0  0
    2.5369   -5.5000    0.0000 O   0  0  0  0  0  0  0  0  0  0  0  0
    4.2690   -6.5000    0.0000 O   0  0  0  0  0  0  0  0  0  0  0  0
    6.0010    3.5000    0.0000 O   0  0  0  0  0  0  0  0  0  0  0  0
    5.1350    2.0000    0.0000 O   0  0  0  0  0  0  0  0  0  0  0  0
    7.7331    6.5000    0.0000 O   0  0  0  0  0  0  0  0  0  0  0  0
    3.4030   -2.0000    0.0000 O   0  0  0  0  0  0  0  0  0  0  0  0
    6.8671   -5.0000    0.0000 O   0  0  0  0  0  0  0  0  0  0  0  0
    6.0010   -6.5000    0.0000 O   0  0  0  0  0  0  0  0  0  0  0  0
   12.0632    5.0000    0.0000 O   0  0  0  0  0  0  0  0  0  0  0  0
    4.2690   -0.5000    0.0000 N   0  0  0  0  0  0  0  0  0  0  0  0
   11.1972    3.5000    0.0000 N   0  0  0  0  0  0  0  0  0  0  0  0
    5.1350   -2.0000    0.0000 C   0  0  2  0  0  0  0  0  0  0  0  0
    5.1350   -1.0000    0.0000 C   0  0  2  0  0  0  0  0  0  0  0  0
    6.0010   -0.5000    0.0000 C   0  0  2  0  0  0  0  0  0  0  0  0
    6.0010   -2.5000    0.0000 C   0  0  1  0  0  0  0  0  0  0  0  0
    6.8671    1.0000    0.0000 C   0  0  1  0  0  0  0  0  0  0  0  0
    6.8671   -2.0000    0.0000 C   0  0  1  0  0  0  0  0  0  0  0  0
    7.7331    0.5000    0.0000 C   0  0  1  0  0  0  0  0  0  0  0  0
    8.5991    1.0000    0.0000 C   0  0  2  0  0  0  0  0  0  0  0  0
    8.5991    2.0000    0.0000 C   0  0  1  0  0  0  0  0  0  0  0  0
    6.8671    2.0000    0.0000 C   0  0  1  0  0  0  0  0  0  0  0  0
    9.4651    3.5000    0.0000 C   0  0  2  0  0  0  0  0  0  0  0  0
    4.2690   -3.5000    0.0000 C   0  0  2  0  0  0  0  0  0  0  0  0
   10.3312    4.0000    0.0000 C   0  0  2  0  0  0  0  0  0  0  0  0
    8.5991    4.0000    0.0000 C   0  0  1  0  0  0  0  0  0  0  0  0
    3.4030   -4.0000    0.0000 C   0  0  1  0  0  0  0  0  0  0  0  0
    8.5991    5.0000    0.0000 C   0  0  1  0  0  0  0  0  0  0  0  0
    7.7331   -2.5000    0.0000 C   0  0  0  0  0  0  0  0  0  0  0  0
    3.4030   -5.0000    0.0000 C   0  0  2  0  0  0  0  0  0  0  0  0
   10.3312    5.0000    0.0000 C   0  0  0  0  0  0  0  0  0  0  0  0
    4.2690   -5.5000    0.0000 C   0  0  1  0  0  0  0  0  0  0  0  0
    5.1350   -5.0000    0.0000 C   0  0  1  0  0  0  0  0  0  0  0  0
    6.0010    2.5000    0.0000 C   0  0  0  0  0  0  0  0  0  0  0  0
    7.7331    5.5000    0.0000 C   0  0  0  0  0  0  0  0  0  0  0  0
    3.4030   -1.0000    0.0000 C   0  0  0  0  0  0  0  0  0  0  0  0
    6.0010   -5.5000    0.0000 C   0  0  0  0  0  0  0  0  0  0  0  0
   12.0632    4.0000    0.0000 C   0  0  0  0  0  0  0  0  0  0  0  0
    2.5369   -0.5000    0.0000 C   0  0  0  0  0  0  0  0  0  0  0  0
   12.9292    3.5000    0.0000 C   0  0  0  0  0  0  0  0  0  0  0  0
    4.5981   -1.6900    0.0000 H   0  0  0  0  0  0  0  0  0  0  0  0
    5.1350   -0.3800    0.0000 H   0  0  0  0  0  0  0  0  0  0  0  0
    5.4641   -0.1900    0.0000 H   0  0  0  0  0  0  0  0  0  0  0  0
    5.4641   -2.8100    0.0000 H   0  0  0  0  0  0  0  0  0  0  0  0
    6.3301    1.3100    0.0000 H   0  0  0  0  0  0  0  0  0  0  0  0
    7.4040   -1.6900    0.0000 H   0  0  0  0  0  0  0  0  0  0  0  0
    7.1962    0.1900    0.0000 H   0  0  0  0  0  0  0  0  0  0  0  0
    8.5991    0.3800    0.0000 H   0  0  0  0  0  0  0  0  0  0  0  0
    8.5991    2.6200    0.0000 H   0  0  0  0  0  0  0  0  0  0  0  0
    6.8671    2.6200    0.0000 H   0  0  0  0  0  0  0  0  0  0  0  0
   10.0021    3.1900    0.0000 H   0  0  0  0  0  0  0  0  0  0  0  0
    3.7320   -3.1900    0.0000 H   0  0  0  0  0  0  0  0  0  0  0  0
   10.8681    4.3100    0.0000 H   0  0  0  0  0  0  0  0  0  0  0  0
    8.5991    3.3800    0.0000 H   0  0  0  0  0  0  0  0  0  0  0  0
    4.2690    0.1200    0.0000 H   0  0  0  0  0  0  0  0  0  0  0  0
    3.4030   -3.3800    0.0000 H   0  0  0  0  0  0  0  0  0  0  0  0
    8.5991    5.6200    0.0000 H   0  0  0  0  0  0  0  0  0  0  0  0
    8.3437   -2.6077    0.0000 H   0  0  0  0  0  0  0  0  0  0  0  0
    7.9451   -1.9174    0.0000 H   0  0  0  0  0  0  0  0  0  0  0  0
    3.4030   -5.6200    0.0000 H   0  0  0  0  0  0  0  0  0  0  0  0
   10.9417    4.8923    0.0000 H   0  0  0  0  0  0  0  0  0  0  0  0
   10.5432    5.5826    0.0000 H   0  0  0  0  0  0  0  0  0  0  0  0
    4.8059   -5.8100    0.0000 H   0  0  0  0  0  0  0  0  0  0  0  0
    5.6720   -4.6900    0.0000 H   0  0  0  0  0  0  0  0  0  0  0  0
    6.5380   -3.8100    0.0000 H   0  0  0  0  0  0  0  0  0  0  0  0
    8.2700   -0.8100    0.0000 H   0  0  0  0  0  0  0  0  0  0  0  0
   11.1972    2.8800    0.0000 H   0  0  0  0  0  0  0  0  0  0  0  0
   10.0021    0.8100    0.0000 H   0  0  0  0  0  0  0  0  0  0  0  0
    7.1225    5.6077    0.0000 H   0  0  0  0  0  0  0  0  0  0  0  0
    7.5210    4.9174    0.0000 H   0  0  0  0  0  0  0  0  0  0  0  0
    7.1962    3.8100    0.0000 H   0  0  0  0  0  0  0  0  0  0  0  0
    2.0000   -3.8100    0.0000 H   0  0  0  0  0  0  0  0  0  0  0  0
    8.2700   -3.8100    0.0000 H   0  0  0  0  0  0  0  0  0  0  0  0
    2.5369   -6.1200    0.0000 H   0  0  0  0  0  0  0  0  0  0  0  0
    3.7320   -6.8100    0.0000 H   0  0  0  0  0  0  0  0  0  0  0  0
    2.8469    0.0369    0.0000 H   0  0  0  0  0  0  0  0  0  0  0  0
    2.0000   -0.1900    0.0000 H   0  0  0  0  0  0  0  0  0  0  0  0
    2.2269   -1.0369    0.0000 H   0  0  0  0  0  0  0  0  0  0  0  0
    5.4641    3.8100    0.0000 H   0  0  0  0  0  0  0  0  0  0  0  0
    7.1962    6.8100    0.0000 H   0  0  0  0  0  0  0  0  0  0  0  0
   12.6192    2.9631    0.0000 H   0  0  0  0  0  0  0  0  0  0  0  0
   13.4662    3.1900    0.0000 H   0  0  0  0  0  0  0  0  0  0  0  0
   13.2392    4.0369    0.0000 H   0  0  0  0  0  0  0  0  0  0  0  0
    7.4040   -5.3100    0.0000 H   0  0  0  0  0  0  0  0  0  0  0  0
 27  1  1  6  0  0  0
 29  1  1  6  0  0  0
  2 27  1  0  0  0  0
  2 30  1  0  0  0  0
 25  3  1  6  0  0  0
 36  3  1  6  0  0  0
  4 33  1  0  0  0  0
  4 34  1  0  0  0  0
 33  5  1  1  0  0  0
 35  5  1  1  0  0  0
 28  6  1  1  0  0  0
  6 77  1  0  0  0  0
  7 36  1  0  0  0  0
  7 45  1  0  0  0  0
  8 40  1  0  0  0  0
  8 43  1  0  0  0  0
 31  9  1  1  0  0  0
  9 78  1  0  0  0  0
 32 10  1  6  0  0  0
 10 80  1  0  0  0  0
 38 11  1  6  0  0  0
 11 83  1  0  0  0  0
 39 12  1  1  0  0  0
 12 84  1  0  0  0  0
 13 41  1  0  0  0  0
 13 85  1  0  0  0  0
 42 14  1  6  0  0  0
 14 86  1  0  0  0  0
 44 15  1  1  0  0  0
 15 87  1  0  0  0  0
 16 46  1  0  0  0  0
 16 91  1  0  0  0  0
 17 46  2  0  0  0  0
 18 47  1  0  0  0  0
 18 92  1  0  0  0  0
 19 48  2  0  0  0  0
 20 49  1  0  0  0  0
 20 96  1  0  0  0  0
 21 49  2  0  0  0  0
 22 50  2  0  0  0  0
 26 23  1  1  0  0  0
 23 48  1  0  0  0  0
 23 67  1  0  0  0  0
 37 24  1  6  0  0  0
 24 50  1  0  0  0  0
 24 79  1  0  0  0  0
 25 26  1  0  0  0  0
 25 28  1  0  0  0  0
 25 53  1  0  0  0  0
 26 27  1  0  0  0  0
 26 54  1  0  0  0  0
 27 55  1  0  0  0  0
 28 30  1  0  0  0  0
 28 56  1  0  0  0  0
 29 31  1  0  0  0  0
 29 34  1  0  0  0  0
 29 57  1  0  0  0  0
 30 41  1  6  0  0  0
 30 58  1  0  0  0  0
 31 32  1  0  0  0  0
 31 59  1  0  0  0  0
 32 33  1  0  0  0  0
 32 60  1  0  0  0  0
 33 61  1  0  0  0  0
 34 46  1  1  0  0  0
 34 62  1  0  0  0  0
 35 37  1  0  0  0  0
 35 38  1  0  0  0  0
 35 63  1  0  0  0  0
 36 39  1  0  0  0  0
 36 64  1  0  0  0  0
 37 43  1  0  0  0  0
 37 65  1  0  0  0  0
 38 40  1  0  0  0  0
 38 66  1  0  0  0  0
 39 42  1  0  0  0  0
 39 68  1  0  0  0  0
 40 47  1  1  0  0  0
 40 69  1  0  0  0  0
 41 70  1  0  0  0  0
 41 71  1  0  0  0  0
 42 44  1  0  0  0  0
 42 72  1  0  0  0  0
 43 73  1  0  0  0  0
 43 74  1  0  0  0  0
 44 45  1  0  0  0  0
 44 75  1  0  0  0  0
 45 49  1  6  0  0  0
 45 76  1  0  0  0  0
 47 81  1  0  0  0  0
 47 82  1  0  0  0  0
 48 51  1  0  0  0  0
 50 52  1  0  0  0  0
 51 88  1  0  0  0  0
 51 89  1  0  0  0  0
 51 90  1  0  0  0  0
 52 93  1  0  0  0  0
 52 94  1  0  0  0  0
 52 95  1  0  0  0  0
M  END
> <PUBCHEM_COMPOUND_CID>
117071915

> <PUBCHEM_COMPOUND_CANONICALIZED>
1

> <PUBCHEM_CACTVS_COMPLEXITY>
1260

> <PUBCHEM_CACTVS_HBOND_ACCEPTOR>
22

> <PUBCHEM_CACTVS_HBOND_DONOR>
13

> <PUBCHEM_CACTVS_ROTATABLE_BOND>
12

> <PUBCHEM_CACTVS_SUBSKEYS>
AAADcfB7PgAAAAAAAAAAAAAAAAAAAAAAAAAkSJEgAAAAAAAAAAAAHgAQCAAACDzxgAcCCALABgAIAAGQGAIAAAAAAAAAAIFIAAATEBYAgAQnQAAHNgCXAAH6fA9AAAAAAAAAAAAAAAAAAAAAAAAAAAAAAA==

> <PUBCHEM_IUPAC_OPENEYE_NAME>
(2S,3S,4S,5R,6R)-6-[(2S,3R,4R,5S,6R)-3-acetamido-2-[(2S,3S,4R,5R,6R)-6-[(2R,3S,4R,5S)-5-acetamido-3-hydroxy-2-(hydroxymethyl)tetrahydropyran-4-yl]oxy-2-carboxy-4,5-dihydroxy-tetrahydropyran-3-yl]oxy-5-hydroxy-6-(hydroxymethyl)tetrahydropyran-4-yl]oxy-3,4,5-trihydroxy-tetrahydropyran-2-carboxylic acid

> <PUBCHEM_IUPAC_CAS_NAME>
(2S,3S,4S,5R,6R)-6-[[(2S,3R,4R,5S,6R)-3-acetamido-2-[[(2S,3S,4R,5R,6R)-6-[[(2R,3S,4R,5S)-5-acetamido-3-hydroxy-2-(hydroxymethyl)-4-oxanyl]oxy]-2-carboxy-4,5-dihydroxy-3-oxanyl]oxy]-5-hydroxy-6-(hydroxymethyl)-4-oxanyl]oxy]-3,4,5-trihydroxy-2-oxanecarboxylic acid

> <PUBCHEM_IUPAC_NAME_MARKUP>
(2<I>S</I>,3<I>S</I>,4<I>S</I>,5<I>R</I>,6<I>R</I>)-6-[(2<I>S</I>,3<I>R</I>,4<I>R</I>,5<I>S</I>,6<I>R</I>)-3-acetamido-2-[(2<I>S</I>,3<I>S</I>,4<I>R</I>,5<I>R</I>,6<I>R</I>)-6-[(2<I>R</I>,3<I>S</I>,4<I>R</I>,5<I>S</I>)-5-acetamido-3-hydroxy-2-(hydroxymethyl)oxan-4-yl]oxy-2-carboxy-4,5-dihydroxyoxan-3-yl]oxy-5-hydroxy-6-(hydroxymethyl)oxan-4-yl]oxy-3,4,5-trihydroxyoxane-2-carboxylic acid

> <PUBCHEM_IUPAC_NAME>
(2S,3S,4S,5R,6R)-6-[(2S,3R,4R,5S,6R)-3-acetamido-2-[(2S,3S,4R,5R,6R)-6-[(2R,3S,4R,5S)-5-acetamido-3-hydroxy-2-(hydroxymethyl)oxan-4-yl]oxy-2-carboxy-4,5-dihydroxyoxan-3-yl]oxy-5-hydroxy-6-(hydroxymethyl)oxan-4-yl]oxy-3,4,5-trihydroxyoxane-2-carboxylic acid

> <PUBCHEM_IUPAC_SYSTEMATIC_NAME>
(2S,3S,4S,5R,6R)-6-[(2S,3R,4R,5S,6R)-3-acetamido-2-[(2S,3S,4R,5R,6R)-6-[(2R,3S,4R,5S)-5-acetamido-2-(hydroxymethyl)-3-oxidanyl-oxan-4-yl]oxy-2-carboxy-4,5-bis(oxidanyl)oxan-3-yl]oxy-6-(hydroxymethyl)-5-oxidanyl-oxan-4-yl]oxy-3,4,5-tris(oxidanyl)oxane-2-carboxylic acid

> <PUBCHEM_IUPAC_TRADITIONAL_NAME>
(2S,3S,4S,5R,6R)-6-[(2S,3R,4R,5S,6R)-3-acetamido-2-[(2S,3S,4R,5R,6R)-6-[(2R,3S,4R,5S)-5-acetamido-3-hydroxy-2-methylol-tetrahydropyran-4-yl]oxy-2-carboxy-4,5-dihydroxy-tetrahydropyran-3-yl]oxy-5-hydroxy-6-methylol-tetrahydropyran-4-yl]oxy-3,4,5-trihydroxy-tetrahydropyran-2-carboxylic acid

> <PUBCHEM_IUPAC_INCHI>
InChI=1S/C28H44N2O22/c1-6(33)29-8-5-46-9(3-31)12(35)19(8)48-28-18(41)16(39)21(23(52-28)25(44)45)50-26-11(30-7(2)34)20(13(36)10(4-32)47-26)49-27-17(40)14(37)15(38)22(51-27)24(42)43/h8-23,26-28,31-32,35-41H,3-5H2,1-2H3,(H,29,33)(H,30,34)(H,42,43)(H,44,45)/t8-,9+,10+,11+,12+,13+,14-,15-,16+,17+,18+,19+,20+,21-,22-,23-,26-,27+,28+/m0/s1

> <PUBCHEM_IUPAC_INCHIKEY>
YJZOOHUXRFDTSG-MKHOPNFUSA-N

> <PUBCHEM_XLOGP3_AA>
-6.9

> <PUBCHEM_EXACT_MASS>
760.23857104

> <PUBCHEM_MOLECULAR_FORMULA>
C28H44N2O22

> <PUBCHEM_MOLECULAR_WEIGHT>
760.6

> <PUBCHEM_OPENEYE_CAN_SMILES>
CC(=O)NC1COC(C(C1OC2C(C(C(C(O2)C(=O)O)OC3C(C(C(C(O3)CO)O)OC4C(C(C(C(O4)C(=O)O)O)O)O)NC(=O)C)O)O)O)CO

> <PUBCHEM_OPENEYE_ISO_SMILES>
CC(=O)N[C@H]1CO[C@@H]([C@H]([C@@H]1O[C@H]2[C@@H]([C@H]([C@@H]([C@H](O2)C(=O)O)O[C@H]3[C@@H]([C@H]([C@@H]([C@H](O3)CO)O)O[C@H]4[C@@H]([C@H]([C@@H]([C@H](O4)C(=O)O)O)O)O)NC(=O)C)O)O)O)CO

> <PUBCHEM_CACTVS_TPSA>
380

> <PUBCHEM_MONOISOTOPIC_WEIGHT>
760.23857104

> <PUBCHEM_TOTAL_CHARGE>
0

> <PUBCHEM_HEAVY_ATOM_COUNT>
52

> <PUBCHEM_ATOM_DEF_STEREO_COUNT>
19

> <PUBCHEM_ATOM_UDEF_STEREO_COUNT>
0

> <PUBCHEM_BOND_DEF_STEREO_COUNT>
0

> <PUBCHEM_BOND_UDEF_STEREO_COUNT>
0

> <PUBCHEM_ISOTOPIC_ATOM_COUNT>
0

> <PUBCHEM_COMPONENT_COUNT>
1

> <PUBCHEM_CACTVS_TAUTO_COUNT>
-1

> <PUBCHEM_COORDINATE_TYPE>
1
5
255

> <PUBCHEM_BONDANNOTATIONS>
27  1  6
29  1  6
32  10  6
38  11  6
39  12  5
42  14  6
44  15  5
26  23  5
37  24  6
25  3  6
36  3  6
30  41  6
34  46  5
40  47  5
45  49  6
33  5  5
35  5  5
28  6  5
31  9  5

$$$$
