 
  -OEChem-10192104182D

 26 26  0     1  0  0  0  0  0999 V2000
    5.1350    0.5950    0.0000 O   0  0  0  0  0  0  0  0  0  0  0  0
    5.1350   -1.4050    0.0000 O   0  0  0  0  0  0  0  0  0  0  0  0
    6.8671    1.5950    0.0000 O   0  0  0  0  0  0  0  0  0  0  0  0
    3.4030   -2.4050    0.0000 O   0  0  0  0  0  0  0  0  0  0  0  0
    2.5369   -0.9050    0.0000 O   0  0  0  0  0  0  0  0  0  0  0  0
    7.7331    2.0950    0.0000 O   0  0  0  0  0  0  0  0  0  0  0  0
    6.0010    0.0950    0.0000 C   0  0  3  0  0  0  0  0  0  0  0  0
    6.0010   -0.9050    0.0000 C   0  0  3  0  0  0  0  0  0  0  0  0
    4.2690   -0.9050    0.0000 C   0  0  3  0  0  0  0  0  0  0  0  0
    4.2690    0.0950    0.0000 C   0  0  3  0  0  0  0  0  0  0  0  0
    6.8671    0.5950    0.0000 C   0  0  0  0  0  0  0  0  0  0  0  0
    3.4030   -1.4050    0.0000 C   0  0  0  0  0  0  0  0  0  0  0  0
    6.8671   -1.4050    0.0000 C   0  0  0  0  0  0  0  0  0  0  0  0
    3.4030    0.5950    0.0000 C   0  0  0  0  0  0  0  0  0  0  0  0
    7.7331   -1.9050    0.0000 C   0  0  0  0  0  0  0  0  0  0  0  0
    2.5369    1.0950    0.0000 C   0  0  0  0  0  0  0  0  0  0  0  0
    6.0010    0.7150    0.0000 H   0  0  0  0  0  0  0  0  0  0  0  0
    6.0010   -1.5250    0.0000 H   0  0  0  0  0  0  0  0  0  0  0  0
    4.2690   -1.5250    0.0000 H   0  0  0  0  0  0  0  0  0  0  0  0
    4.2690    0.7150    0.0000 H   0  0  0  0  0  0  0  0  0  0  0  0
    7.0791    0.0124    0.0000 H   0  0  0  0  0  0  0  0  0  0  0  0
    7.4776    0.7027    0.0000 H   0  0  0  0  0  0  0  0  0  0  0  0
    2.8660   -2.7150    0.0000 H   0  0  0  0  0  0  0  0  0  0  0  0
    8.2700   -2.2150    0.0000 H   0  0  0  0  0  0  0  0  0  0  0  0
    2.0000    1.4050    0.0000 H   0  0  0  0  0  0  0  0  0  0  0  0
    7.7331    2.7150    0.0000 H   0  0  0  0  0  0  0  0  0  0  0  0
  1  7  1  0  0  0  0
  1 10  1  0  0  0  0
  2  8  1  0  0  0  0
  2  9  1  0  0  0  0
  3  6  1  0  0  0  0
  3 11  1  0  0  0  0
  4 12  1  0  0  0  0
  4 23  1  0  0  0  0
  5 12  2  0  0  0  0
  6 26  1  0  0  0  0
  7  8  1  0  0  0  0
  7 11  1  0  0  0  0
  7 17  1  0  0  0  0
  8 13  1  0  0  0  0
  8 18  1  0  0  0  0
  9 10  1  0  0  0  0
  9 12  1  0  0  0  0
  9 19  1  0  0  0  0
 10 14  1  0  0  0  0
 10 20  1  0  0  0  0
 11 21  1  0  0  0  0
 11 22  1  0  0  0  0
 13 15  3  0  0  0  0
 14 16  3  0  0  0  0
 15 24  1  0  0  0  0
 16 25  1  0  0  0  0
M  END
> <PUBCHEM_COMPOUND_CID>
20679679

> <PUBCHEM_COMPOUND_CANONICALIZED>
1

> <PUBCHEM_CACTVS_COMPLEXITY>
358

> <PUBCHEM_CACTVS_HBOND_ACCEPTOR>
6

> <PUBCHEM_CACTVS_HBOND_DONOR>
2

> <PUBCHEM_CACTVS_ROTATABLE_BOND>
3

> <PUBCHEM_CACTVS_SUBSKEYS>
AAADccBwOAAAAAAAAAAAAAAAAAAAAAAAAAAkAAAAAAAAAAAAAAAAGgAADAAACBSggAIACAAABgBIGACQCAoAAAAAAAAAAAFAAAABABQAAAQCQAAFIAADAAAAAAAAAAAAAAAAAAAAAAAAAAAAAAAAAAAAAA==

> <PUBCHEM_IUPAC_OPENEYE_NAME>
3,6-diethynyl-5-(hydroperoxymethyl)-1,4-dioxane-2-carboxylic acid

> <PUBCHEM_IUPAC_CAS_NAME>
3,6-diethynyl-5-(hydroperoxymethyl)-1,4-dioxane-2-carboxylic acid

> <PUBCHEM_IUPAC_NAME_MARKUP>
3,6-diethynyl-5-(hydroperoxymethyl)-1,4-dioxane-2-carboxylic acid

> <PUBCHEM_IUPAC_NAME>
3,6-diethynyl-5-(hydroperoxymethyl)-1,4-dioxane-2-carboxylic acid

> <PUBCHEM_IUPAC_SYSTEMATIC_NAME>
5-(dioxidanylmethyl)-3,6-diethynyl-1,4-dioxane-2-carboxylic acid

> <PUBCHEM_IUPAC_TRADITIONAL_NAME>
3,6-diethynyl-5-(hydroperoxymethyl)-1,4-dioxane-2-carboxylic acid

> <PUBCHEM_IUPAC_INCHI>
InChI=1S/C10H10O6/c1-3-6-8(5-14-13)15-7(4-2)9(16-6)10(11)12/h1-2,6-9,13H,5H2,(H,11,12)

> <PUBCHEM_IUPAC_INCHIKEY>
CMTICCYQGZOHFB-UHFFFAOYSA-N

> <PUBCHEM_XLOGP3_AA>
-0.9

> <PUBCHEM_EXACT_MASS>
226.04773803

> <PUBCHEM_MOLECULAR_FORMULA>
C10H10O6

> <PUBCHEM_MOLECULAR_WEIGHT>
226.18

> <PUBCHEM_OPENEYE_CAN_SMILES>
C#CC1C(OC(C(O1)C(=O)O)C#C)COO

> <PUBCHEM_OPENEYE_ISO_SMILES>
C#CC1C(OC(C(O1)C(=O)O)C#C)COO

> <PUBCHEM_CACTVS_TPSA>
85.2

> <PUBCHEM_MONOISOTOPIC_WEIGHT>
226.04773803

> <PUBCHEM_TOTAL_CHARGE>
0

> <PUBCHEM_HEAVY_ATOM_COUNT>
16

> <PUBCHEM_ATOM_DEF_STEREO_COUNT>
0

> <PUBCHEM_ATOM_UDEF_STEREO_COUNT>
4

> <PUBCHEM_BOND_DEF_STEREO_COUNT>
0

> <PUBCHEM_BOND_UDEF_STEREO_COUNT>
0

> <PUBCHEM_ISOTOPIC_ATOM_COUNT>
0

> <PUBCHEM_COMPONENT_COUNT>
1

> <PUBCHEM_CACTVS_TAUTO_COUNT>
-1

> <PUBCHEM_COORDINATE_TYPE>
1
5
255

> <PUBCHEM_BONDANNOTATIONS>
10  14  3
7  11  3
8  13  3
9  12  3

$$$$
