 
  -OEChem-10192104002D

 67 67  0     1  0  0  0  0  0999 V2000
    7.6485   -2.5758    0.0000 O   0  0  0  0  0  0  0  0  0  0  0  0
    7.1485   -0.0370    0.0000 O   0  0  0  0  0  0  0  0  0  0  0  0
    5.3884   -1.3157    0.0000 O   0  0  0  0  0  0  0  0  0  0  0  0
    9.6517   -1.9849    0.0000 O   0  0  0  0  0  0  0  0  0  0  0  0
   10.0675   -0.0286    0.0000 O   0  0  0  0  0  0  0  0  0  0  0  0
    5.4164   -0.0370    0.0000 O   0  0  0  0  0  0  0  0  0  0  0  0
    4.8532   -2.9630    0.0000 O   0  0  0  0  0  0  0  0  0  0  0  0
   10.8107   -0.6977    0.0000 O   0  0  0  0  0  0  0  0  0  0  0  0
    9.5323    1.6187    0.0000 O   0  0  0  0  0  0  0  0  0  0  0  0
    7.9575   -1.6248    0.0000 C   0  0  1  0  0  0  0  0  0  0  0  0
    7.1485   -1.0370    0.0000 C   0  0  1  0  0  0  0  0  0  0  0  0
    6.3395   -1.6248    0.0000 C   0  0  2  0  0  0  0  0  0  0  0  0
    8.9086   -1.3157    0.0000 C   0  0  1  0  0  0  0  0  0  0  0  0
    6.6485   -2.5758    0.0000 C   0  0  0  0  0  0  0  0  0  0  0  0
    9.1165   -0.3376    0.0000 C   0  0  0  0  0  0  0  0  0  0  0  0
    6.2824    0.4630    0.0000 C   0  0  0  0  0  0  0  0  0  0  0  0
    4.6453   -1.9849    0.0000 C   0  0  0  0  0  0  0  0  0  0  0  0
   10.6028   -1.6759    0.0000 C   0  0  0  0  0  0  0  0  0  0  0  0
    6.2824    1.4630    0.0000 C   0  0  0  0  0  0  0  0  0  0  0  0
    3.6942   -1.6759    0.0000 C   0  0  0  0  0  0  0  0  0  0  0  0
   11.3459   -2.3450    0.0000 C   0  0  0  0  0  0  0  0  0  0  0  0
    5.4164    1.9630    0.0000 C   0  0  0  0  0  0  0  0  0  0  0  0
   10.2754    0.9496    0.0000 C   0  0  0  0  0  0  0  0  0  0  0  0
    2.9511   -2.3450    0.0000 C   0  0  0  0  0  0  0  0  0  0  0  0
   12.2970   -2.0360    0.0000 C   0  0  0  0  0  0  0  0  0  0  0  0
   11.2265    1.2586    0.0000 C   0  0  0  0  0  0  0  0  0  0  0  0
    5.4164    2.9630    0.0000 C   0  0  0  0  0  0  0  0  0  0  0  0
    2.0000   -2.0360    0.0000 C   0  0  0  0  0  0  0  0  0  0  0  0
   11.4344    2.2367    0.0000 C   0  0  0  0  0  0  0  0  0  0  0  0
   13.0401   -2.7051    0.0000 C   0  0  0  0  0  0  0  0  0  0  0  0
   12.3855    2.5458    0.0000 C   0  0  0  0  0  0  0  0  0  0  0  0
    8.5585   -2.2258    0.0000 H   0  0  0  0  0  0  0  0  0  0  0  0
    6.5960   -0.7555    0.0000 H   0  0  0  0  0  0  0  0  0  0  0  0
    6.2425   -1.0124    0.0000 H   0  0  0  0  0  0  0  0  0  0  0  0
    8.7796   -1.9222    0.0000 H   0  0  0  0  0  0  0  0  0  0  0  0
    6.0420   -2.7047    0.0000 H   0  0  0  0  0  0  0  0  0  0  0  0
    6.7133   -3.1924    0.0000 H   0  0  0  0  0  0  0  0  0  0  0  0
    9.0302    0.2764    0.0000 H   0  0  0  0  0  0  0  0  0  0  0  0
    8.4968   -0.3160    0.0000 H   0  0  0  0  0  0  0  0  0  0  0  0
    6.8930    1.3554    0.0000 H   0  0  0  0  0  0  0  0  0  0  0  0
    6.4945    2.0456    0.0000 H   0  0  0  0  0  0  0  0  0  0  0  0
    3.9853   -1.1284    0.0000 H   0  0  0  0  0  0  0  0  0  0  0  0
    3.2056   -1.2942    0.0000 H   0  0  0  0  0  0  0  0  0  0  0  0
   10.8573   -2.7267    0.0000 H   0  0  0  0  0  0  0  0  0  0  0  0
   11.6370   -2.8924    0.0000 H   0  0  0  0  0  0  0  0  0  0  0  0
    4.8058    2.0707    0.0000 H   0  0  0  0  0  0  0  0  0  0  0  0
    5.2044    1.3804    0.0000 H   0  0  0  0  0  0  0  0  0  0  0  0
    2.6600   -2.8924    0.0000 H   0  0  0  0  0  0  0  0  0  0  0  0
    3.4396   -2.7267    0.0000 H   0  0  0  0  0  0  0  0  0  0  0  0
   12.7855   -1.6543    0.0000 H   0  0  0  0  0  0  0  0  0  0  0  0
   12.0059   -1.4885    0.0000 H   0  0  0  0  0  0  0  0  0  0  0  0
   11.3128    0.6446    0.0000 H   0  0  0  0  0  0  0  0  0  0  0  0
   11.8461    1.2370    0.0000 H   0  0  0  0  0  0  0  0  0  0  0  0
    6.0364    2.9630    0.0000 H   0  0  0  0  0  0  0  0  0  0  0  0
    5.4164    3.5830    0.0000 H   0  0  0  0  0  0  0  0  0  0  0  0
    4.7964    2.9630    0.0000 H   0  0  0  0  0  0  0  0  0  0  0  0
    2.1916   -1.4463    0.0000 H   0  0  0  0  0  0  0  0  0  0  0  0
    1.4103   -1.8444    0.0000 H   0  0  0  0  0  0  0  0  0  0  0  0
    1.8084   -2.6256    0.0000 H   0  0  0  0  0  0  0  0  0  0  0  0
   11.3481    2.8507    0.0000 H   0  0  0  0  0  0  0  0  0  0  0  0
   10.8148    2.2584    0.0000 H   0  0  0  0  0  0  0  0  0  0  0  0
   12.6252   -3.1658    0.0000 H   0  0  0  0  0  0  0  0  0  0  0  0
   13.5008   -3.1200    0.0000 H   0  0  0  0  0  0  0  0  0  0  0  0
   13.4550   -2.2444    0.0000 H   0  0  0  0  0  0  0  0  0  0  0  0
   12.5770    1.9561    0.0000 H   0  0  0  0  0  0  0  0  0  0  0  0
   12.9751    2.7373    0.0000 H   0  0  0  0  0  0  0  0  0  0  0  0
   12.1939    3.1354    0.0000 H   0  0  0  0  0  0  0  0  0  0  0  0
  1 10  1  0  0  0  0
  1 14  1  0  0  0  0
 11  2  1  1  0  0  0
  2 16  1  0  0  0  0
 12  3  1  6  0  0  0
  3 17  1  0  0  0  0
 13  4  1  1  0  0  0
  4 18  1  0  0  0  0
  5 15  1  0  0  0  0
  5 23  1  0  0  0  0
  6 16  2  0  0  0  0
  7 17  2  0  0  0  0
  8 18  2  0  0  0  0
  9 23  2  0  0  0  0
 10 11  1  0  0  0  0
 10 13  1  0  0  0  0
 10 32  1  6  0  0  0
 11 12  1  0  0  0  0
 11 33  1  0  0  0  0
 12 14  1  0  0  0  0
 12 34  1  0  0  0  0
 13 15  1  0  0  0  0
 13 35  1  0  0  0  0
 14 36  1  0  0  0  0
 14 37  1  0  0  0  0
 15 38  1  0  0  0  0
 15 39  1  0  0  0  0
 16 19  1  0  0  0  0
 17 20  1  0  0  0  0
 18 21  1  0  0  0  0
 19 22  1  0  0  0  0
 19 40  1  0  0  0  0
 19 41  1  0  0  0  0
 20 24  1  0  0  0  0
 20 42  1  0  0  0  0
 20 43  1  0  0  0  0
 21 25  1  0  0  0  0
 21 44  1  0  0  0  0
 21 45  1  0  0  0  0
 22 27  1  0  0  0  0
 22 46  1  0  0  0  0
 22 47  1  0  0  0  0
 23 26  1  0  0  0  0
 24 28  1  0  0  0  0
 24 48  1  0  0  0  0
 24 49  1  0  0  0  0
 25 30  1  0  0  0  0
 25 50  1  0  0  0  0
 25 51  1  0  0  0  0
 26 29  1  0  0  0  0
 26 52  1  0  0  0  0
 26 53  1  0  0  0  0
 27 54  1  0  0  0  0
 27 55  1  0  0  0  0
 27 56  1  0  0  0  0
 28 57  1  0  0  0  0
 28 58  1  0  0  0  0
 28 59  1  0  0  0  0
 29 31  1  0  0  0  0
 29 60  1  0  0  0  0
 29 61  1  0  0  0  0
 30 62  1  0  0  0  0
 30 63  1  0  0  0  0
 30 64  1  0  0  0  0
 31 65  1  0  0  0  0
 31 66  1  0  0  0  0
 31 67  1  0  0  0  0
M  END
> <PUBCHEM_COMPOUND_CID>
66991950

> <PUBCHEM_COMPOUND_CANONICALIZED>
1

> <PUBCHEM_CACTVS_COMPLEXITY>
590

> <PUBCHEM_CACTVS_HBOND_ACCEPTOR>
9

> <PUBCHEM_CACTVS_HBOND_DONOR>
0

> <PUBCHEM_CACTVS_ROTATABLE_BOND>
18

> <PUBCHEM_CACTVS_SUBSKEYS>
AAADcfB4PAAAAAAAAAAAAAAAAAAAASAAAAAAAAAAAAAAAAAAAAAAGgAAAAAACBSggAICCAAABAAIAACQCAAAAAAAAAAAAAEAAAABABIAAAACAAAFAAACAAHAYAwAAAAAAAAAAAAAAAAAAAAAAAAAAAAAAA==

> <PUBCHEM_IUPAC_OPENEYE_NAME>
[(2R)-2-butanoyloxy-2-[(2R,3R,4S)-3,4-di(butanoyloxy)tetrahydrofuran-2-yl]ethyl] butanoate

> <PUBCHEM_IUPAC_CAS_NAME>
butanoic acid [(2R)-2-[(2R,3R,4S)-3,4-bis(1-oxobutoxy)-2-oxolanyl]-2-(1-oxobutoxy)ethyl] ester

> <PUBCHEM_IUPAC_NAME_MARKUP>
[(2<I>R</I>)-2-butanoyloxy-2-[(2<I>R</I>,3<I>R</I>,4<I>S</I>)-3,4-di(butanoyloxy)oxolan-2-yl]ethyl] butanoate

> <PUBCHEM_IUPAC_NAME>
[(2R)-2-butanoyloxy-2-[(2R,3R,4S)-3,4-di(butanoyloxy)oxolan-2-yl]ethyl] butanoate

> <PUBCHEM_IUPAC_SYSTEMATIC_NAME>
[(2R)-2-butanoyloxy-2-[(2R,3R,4S)-3,4-di(butanoyloxy)oxolan-2-yl]ethyl] butanoate

> <PUBCHEM_IUPAC_TRADITIONAL_NAME>
butyric acid [(2R)-2-butyryloxy-2-[(2R,3R,4S)-3,4-dibutyryloxytetrahydrofuran-2-yl]ethyl] ester

> <PUBCHEM_IUPAC_INCHI>
InChI=1S/C22H36O9/c1-5-9-17(23)27-13-15(29-18(24)10-6-2)21-22(31-20(26)12-8-4)16(14-28-21)30-19(25)11-7-3/h15-16,21-22H,5-14H2,1-4H3/t15-,16+,21-,22-/m1/s1

> <PUBCHEM_IUPAC_INCHIKEY>
AUBUZTDFRJJDDE-FHTPNYMGSA-N

> <PUBCHEM_XLOGP3_AA>
3

> <PUBCHEM_EXACT_MASS>
444.23593272

> <PUBCHEM_MOLECULAR_FORMULA>
C22H36O9

> <PUBCHEM_MOLECULAR_WEIGHT>
444.5

> <PUBCHEM_OPENEYE_CAN_SMILES>
CCCC(=O)OCC(C1C(C(CO1)OC(=O)CCC)OC(=O)CCC)OC(=O)CCC

> <PUBCHEM_OPENEYE_ISO_SMILES>
CCCC(=O)OC[C@H]([C@@H]1[C@@H]([C@H](CO1)OC(=O)CCC)OC(=O)CCC)OC(=O)CCC

> <PUBCHEM_CACTVS_TPSA>
114

> <PUBCHEM_MONOISOTOPIC_WEIGHT>
444.23593272

> <PUBCHEM_TOTAL_CHARGE>
0

> <PUBCHEM_HEAVY_ATOM_COUNT>
31

> <PUBCHEM_ATOM_DEF_STEREO_COUNT>
4

> <PUBCHEM_ATOM_UDEF_STEREO_COUNT>
0

> <PUBCHEM_BOND_DEF_STEREO_COUNT>
0

> <PUBCHEM_BOND_UDEF_STEREO_COUNT>
0

> <PUBCHEM_ISOTOPIC_ATOM_COUNT>
0

> <PUBCHEM_COMPONENT_COUNT>
1

> <PUBCHEM_CACTVS_TAUTO_COUNT>
-1

> <PUBCHEM_COORDINATE_TYPE>
1
5
255

> <PUBCHEM_BONDANNOTATIONS>
10  32  6
11  2  5
12  3  6
13  4  5

$$$$
