 
  -OEChem-10192103312D

 36 37  0     1  0  0  0  0  0999 V2000
    6.0010   -0.1830    0.0000 O   0  0  0  0  0  0  0  0  0  0  0  0
    4.6350    2.1830    0.0000 O   0  0  0  0  0  0  0  0  0  0  0  0
    4.2690   -0.1830    0.0000 O   0  0  0  0  0  0  0  0  0  0  0  0
    7.3671    3.1830    0.0000 O   0  0  0  0  0  0  0  0  0  0  0  0
    6.0010   -2.1830    0.0000 O   0  0  0  0  0  0  0  0  0  0  0  0
    4.2690   -3.1830    0.0000 O   0  0  0  0  0  0  0  0  0  0  0  0
    2.5369   -2.1830    0.0000 O   0  0  0  0  0  0  0  0  0  0  0  0
    2.5369    0.8170    0.0000 O   0  0  0  0  0  0  0  0  0  0  0  0
    6.5010    1.6830    0.0000 C   0  0  3  0  0  0  0  0  0  0  0  0
    6.0010    0.8170    0.0000 C   0  0  3  0  0  0  0  0  0  0  0  0
    5.5010    1.6830    0.0000 C   0  0  3  0  0  0  0  0  0  0  0  0
    5.1350   -0.6830    0.0000 C   0  0  3  0  0  0  0  0  0  0  0  0
    7.3671    2.1830    0.0000 C   0  0  0  0  0  0  0  0  0  0  0  0
    5.1350   -1.6830    0.0000 C   0  0  3  0  0  0  0  0  0  0  0  0
    4.2690   -2.1830    0.0000 C   0  0  3  0  0  0  0  0  0  0  0  0
    3.4030   -1.6830    0.0000 C   0  0  3  0  0  0  0  0  0  0  0  0
    3.4030   -0.6830    0.0000 C   0  0  3  0  0  0  0  0  0  0  0  0
    2.5369   -0.1830    0.0000 C   0  0  0  0  0  0  0  0  0  0  0  0
    6.3406    2.2819    0.0000 H   0  0  0  0  0  0  0  0  0  0  0  0
    6.5999    0.6565    0.0000 H   0  0  0  0  0  0  0  0  0  0  0  0
    5.6615    2.2819    0.0000 H   0  0  0  0  0  0  0  0  0  0  0  0
    5.1350   -0.0630    0.0000 H   0  0  0  0  0  0  0  0  0  0  0  0
    7.5791    1.6004    0.0000 H   0  0  0  0  0  0  0  0  0  0  0  0
    7.9776    2.2907    0.0000 H   0  0  0  0  0  0  0  0  0  0  0  0
    5.1350   -2.3030    0.0000 H   0  0  0  0  0  0  0  0  0  0  0  0
    3.7320   -2.4930    0.0000 H   0  0  0  0  0  0  0  0  0  0  0  0
    3.4030   -2.3030    0.0000 H   0  0  0  0  0  0  0  0  0  0  0  0
    3.4030   -0.0630    0.0000 H   0  0  0  0  0  0  0  0  0  0  0  0
    4.6350    2.8030    0.0000 H   0  0  0  0  0  0  0  0  0  0  0  0
    1.9264   -0.0754    0.0000 H   0  0  0  0  0  0  0  0  0  0  0  0
    2.3249   -0.7656    0.0000 H   0  0  0  0  0  0  0  0  0  0  0  0
    7.9040    3.4930    0.0000 H   0  0  0  0  0  0  0  0  0  0  0  0
    6.0010   -2.8030    0.0000 H   0  0  0  0  0  0  0  0  0  0  0  0
    3.7320   -3.4930    0.0000 H   0  0  0  0  0  0  0  0  0  0  0  0
    2.0000   -1.8730    0.0000 H   0  0  0  0  0  0  0  0  0  0  0  0
    2.0000    1.1270    0.0000 H   0  0  0  0  0  0  0  0  0  0  0  0
  1 10  1  0  0  0  0
  1 12  1  0  0  0  0
  2 11  1  0  0  0  0
  2 29  1  0  0  0  0
  3 12  1  0  0  0  0
  3 17  1  0  0  0  0
  4 13  1  0  0  0  0
  4 32  1  0  0  0  0
  5 14  1  0  0  0  0
  5 33  1  0  0  0  0
  6 15  1  0  0  0  0
  6 34  1  0  0  0  0
  7 16  1  0  0  0  0
  7 35  1  0  0  0  0
  8 18  1  0  0  0  0
  8 36  1  0  0  0  0
  9 10  1  0  0  0  0
  9 11  1  0  0  0  0
  9 13  1  0  0  0  0
  9 19  1  0  0  0  0
 10 11  1  0  0  0  0
 10 20  1  0  0  0  0
 11 21  1  0  0  0  0
 12 14  1  0  0  0  0
 12 22  1  0  0  0  0
 13 23  1  0  0  0  0
 13 24  1  0  0  0  0
 14 15  1  0  0  0  0
 14 25  1  0  0  0  0
 15 16  1  0  0  0  0
 15 26  1  0  0  0  0
 16 17  1  0  0  0  0
 16 27  1  0  0  0  0
 17 18  1  0  0  0  0
 17 28  1  0  0  0  0
 18 30  1  0  0  0  0
 18 31  1  0  0  0  0
M  END
> <PUBCHEM_COMPOUND_CID>
138690378

> <PUBCHEM_COMPOUND_CANONICALIZED>
1

> <PUBCHEM_CACTVS_COMPLEXITY>
287

> <PUBCHEM_CACTVS_HBOND_ACCEPTOR>
8

> <PUBCHEM_CACTVS_HBOND_DONOR>
6

> <PUBCHEM_CACTVS_ROTATABLE_BOND>
4

> <PUBCHEM_CACTVS_SUBSKEYS>
AAADceBwPAAAAAAAAAAAAAAAGAAAAAAAAAAkAAAAAAAAAAAAAAAAGgAACAAADRSwgAMACAAABgAAAAAAAAAAAAAAAAAAAAAAAAAREAIAAAAiQAAFAAAHAAHAYAwAAAAAAAAAAAAAAAAAAAAAAAAAAAAAAA==

> <PUBCHEM_IUPAC_OPENEYE_NAME>
2-[2-hydroxy-3-(hydroxymethyl)cyclopropoxy]-6-(hydroxymethyl)tetrahydropyran-3,4,5-triol

> <PUBCHEM_IUPAC_CAS_NAME>
2-[2-hydroxy-3-(hydroxymethyl)cyclopropyl]oxy-6-(hydroxymethyl)oxane-3,4,5-triol

> <PUBCHEM_IUPAC_NAME_MARKUP>
2-[2-hydroxy-3-(hydroxymethyl)cyclopropyl]oxy-6-(hydroxymethyl)oxane-3,4,5-triol

> <PUBCHEM_IUPAC_NAME>
2-[2-hydroxy-3-(hydroxymethyl)cyclopropyl]oxy-6-(hydroxymethyl)oxane-3,4,5-triol

> <PUBCHEM_IUPAC_SYSTEMATIC_NAME>
2-(hydroxymethyl)-6-[2-(hydroxymethyl)-3-oxidanyl-cyclopropyl]oxy-oxane-3,4,5-triol

> <PUBCHEM_IUPAC_TRADITIONAL_NAME>
2-(2-hydroxy-3-methylol-cyclopropoxy)-6-methylol-tetrahydropyran-3,4,5-triol

> <PUBCHEM_IUPAC_INCHI>
InChI=1S/C10H18O8/c11-1-3-5(13)9(3)18-10-8(16)7(15)6(14)4(2-12)17-10/h3-16H,1-2H2

> <PUBCHEM_IUPAC_INCHIKEY>
ADGOKLKGYDMFBI-UHFFFAOYSA-N

> <PUBCHEM_XLOGP3_AA>
-2.7

> <PUBCHEM_EXACT_MASS>
266.10016753

> <PUBCHEM_MOLECULAR_FORMULA>
C10H18O8

> <PUBCHEM_MOLECULAR_WEIGHT>
266.24

> <PUBCHEM_OPENEYE_CAN_SMILES>
C(C1C(C1OC2C(C(C(C(O2)CO)O)O)O)O)O

> <PUBCHEM_OPENEYE_ISO_SMILES>
C(C1C(C1OC2C(C(C(C(O2)CO)O)O)O)O)O

> <PUBCHEM_CACTVS_TPSA>
140

> <PUBCHEM_MONOISOTOPIC_WEIGHT>
266.10016753

> <PUBCHEM_TOTAL_CHARGE>
0

> <PUBCHEM_HEAVY_ATOM_COUNT>
18

> <PUBCHEM_ATOM_DEF_STEREO_COUNT>
0

> <PUBCHEM_ATOM_UDEF_STEREO_COUNT>
8

> <PUBCHEM_BOND_DEF_STEREO_COUNT>
0

> <PUBCHEM_BOND_UDEF_STEREO_COUNT>
0

> <PUBCHEM_ISOTOPIC_ATOM_COUNT>
0

> <PUBCHEM_COMPONENT_COUNT>
1

> <PUBCHEM_CACTVS_TAUTO_COUNT>
-1

> <PUBCHEM_COORDINATE_TYPE>
1
5
255

> <PUBCHEM_BONDANNOTATIONS>
10  1  3
12  1  3
17  18  3
11  2  3
14  5  3
15  6  3
16  7  3
9  13  3

$$$$
