 
  -OEChem-10192103532D

 34 34  0     1  0  0  0  0  0999 V2000
    5.2579    2.6133    0.0000 O   0  0  0  0  0  0  0  0  0  0  0  0
    5.7579   -0.5436    0.0000 O   0  0  0  0  0  0  0  0  0  0  0  0
    6.4302    1.5255    0.0000 O   0  0  0  0  0  0  0  0  0  0  0  0
    2.7021    2.5037    0.0000 O   0  0  0  0  0  0  0  0  0  0  0  0
    3.4013   -2.2662    0.0000 O   0  0  0  0  0  0  0  0  0  0  0  0
    4.9836   -1.5617    0.0000 O   0  0  0  0  0  0  0  0  0  0  0  0
    2.0000   -1.2481    0.0000 O   0  0  0  0  0  0  0  0  0  0  0  0
    4.1701    0.2654    0.0000 C   0  0  2  0  0  0  0  0  0  0  0  0
    4.6701    1.8043    0.0000 C   0  0  2  0  0  0  0  0  0  0  0  0
    3.8611    1.2165    0.0000 C   0  0  1  0  0  0  0  0  0  0  0  0
    5.1701    0.2654    0.0000 C   0  0  1  0  0  0  0  0  0  0  0  0
    5.4791    1.2165    0.0000 C   0  0  2  0  0  0  0  0  0  0  0  0
    3.5823   -0.5436    0.0000 C   0  0  3  0  0  0  0  0  0  0  0  0
    4.0823    2.6133    0.0000 C   0  0  0  0  0  0  0  0  0  0  0  0
    2.9100    1.5255    0.0000 C   0  0  0  0  0  0  0  0  0  0  0  0
    3.9890   -1.4571    0.0000 C   0  0  0  0  0  0  0  0  0  0  0  0
    2.5878   -0.4391    0.0000 C   0  0  0  0  0  0  0  0  0  0  0  0
    3.8080   -3.1797    0.0000 C   0  0  0  0  0  0  0  0  0  0  0  0
    4.4516   -0.2870    0.0000 H   0  0  0  0  0  0  0  0  0  0  0  0
    3.7641    1.8289    0.0000 H   0  0  0  0  0  0  0  0  0  0  0  0
    5.7825    0.3624    0.0000 H   0  0  0  0  0  0  0  0  0  0  0  0
    5.5761    1.8289    0.0000 H   0  0  0  0  0  0  0  0  0  0  0  0
    3.3301    0.0228    0.0000 H   0  0  0  0  0  0  0  0  0  0  0  0
    4.5839    2.9777    0.0000 H   0  0  0  0  0  0  0  0  0  0  0  0
    3.7179    3.1149    0.0000 H   0  0  0  0  0  0  0  0  0  0  0  0
    3.5807    2.2489    0.0000 H   0  0  0  0  0  0  0  0  0  0  0  0
    2.4493    1.1106    0.0000 H   0  0  0  0  0  0  0  0  0  0  0  0
    5.0057    3.1797    0.0000 H   0  0  0  0  0  0  0  0  0  0  0  0
    6.3745   -0.4788    0.0000 H   0  0  0  0  0  0  0  0  0  0  0  0
    6.8909    1.1106    0.0000 H   0  0  0  0  0  0  0  0  0  0  0  0
    2.3356    0.1273    0.0000 H   0  0  0  0  0  0  0  0  0  0  0  0
    3.2416   -3.4319    0.0000 H   0  0  0  0  0  0  0  0  0  0  0  0
    4.0602   -3.7461    0.0000 H   0  0  0  0  0  0  0  0  0  0  0  0
    4.3744   -2.9275    0.0000 H   0  0  0  0  0  0  0  0  0  0  0  0
  9  1  1  1  0  0  0
  1 28  1  0  0  0  0
 11  2  1  1  0  0  0
  2 29  1  0  0  0  0
 12  3  1  1  0  0  0
  3 30  1  0  0  0  0
  4 15  2  0  0  0  0
  5 16  1  0  0  0  0
  5 18  1  0  0  0  0
  6 16  2  0  0  0  0
  7 17  2  0  0  0  0
  8 10  1  0  0  0  0
  8 11  1  0  0  0  0
  8 13  1  6  0  0  0
  8 19  1  0  0  0  0
  9 10  1  0  0  0  0
  9 12  1  0  0  0  0
  9 14  1  0  0  0  0
 10 15  1  6  0  0  0
 10 20  1  0  0  0  0
 11 12  1  0  0  0  0
 11 21  1  0  0  0  0
 12 22  1  0  0  0  0
 13 16  1  0  0  0  0
 13 17  1  0  0  0  0
 13 23  1  0  0  0  0
 14 24  1  0  0  0  0
 14 25  1  0  0  0  0
 14 26  1  0  0  0  0
 15 27  1  0  0  0  0
 17 31  1  0  0  0  0
 18 32  1  0  0  0  0
 18 33  1  0  0  0  0
 18 34  1  0  0  0  0
M  END
> <PUBCHEM_COMPOUND_CID>
59869235

> <PUBCHEM_COMPOUND_CANONICALIZED>
1

> <PUBCHEM_CACTVS_COMPLEXITY>
355

> <PUBCHEM_CACTVS_HBOND_ACCEPTOR>
7

> <PUBCHEM_CACTVS_HBOND_DONOR>
3

> <PUBCHEM_CACTVS_ROTATABLE_BOND>
5

> <PUBCHEM_CACTVS_SUBSKEYS>
AAADceBwOAAAAAAAAAAAAAAAAAAAAYAAAAAAAAAAAAAAAAAAAAAAGgAACAAADVSggAICCAAABgAIAAiQiAAAAAAAAAAAAAEAAAABEBYIAAAAQAAFIAABAAHK7vzOgAAAAAAAAAAAAAAAAAAAAYQADCAAAA==

> <PUBCHEM_IUPAC_OPENEYE_NAME>
methyl 2-[(1S,2S,3R,4S,5S)-2-formyl-3,4,5-trihydroxy-3-methyl-cyclopentyl]-3-oxo-propanoate

> <PUBCHEM_IUPAC_CAS_NAME>
2-[(1S,2S,3R,4S,5S)-2-formyl-3,4,5-trihydroxy-3-methylcyclopentyl]-3-oxopropanoic acid methyl ester

> <PUBCHEM_IUPAC_NAME_MARKUP>
methyl 2-[(1<I>S</I>,2<I>S</I>,3<I>R</I>,4<I>S</I>,5<I>S</I>)-2-formyl-3,4,5-trihydroxy-3-methylcyclopentyl]-3-oxopropanoate

> <PUBCHEM_IUPAC_NAME>
methyl 2-[(1S,2S,3R,4S,5S)-2-formyl-3,4,5-trihydroxy-3-methylcyclopentyl]-3-oxopropanoate

> <PUBCHEM_IUPAC_SYSTEMATIC_NAME>
methyl 2-[(1S,2S,3R,4S,5S)-2-methanoyl-3-methyl-3,4,5-tris(oxidanyl)cyclopentyl]-3-oxidanylidene-propanoate

> <PUBCHEM_IUPAC_TRADITIONAL_NAME>
2-[(1S,2S,3R,4S,5S)-2-formyl-3,4,5-trihydroxy-3-methyl-cyclopentyl]-3-keto-propionic acid methyl ester

> <PUBCHEM_IUPAC_INCHI>
InChI=1S/C11H16O7/c1-11(17)6(4-13)7(8(14)9(11)15)5(3-12)10(16)18-2/h3-9,14-15,17H,1-2H3/t5?,6-,7+,8-,9-,11+/m0/s1

> <PUBCHEM_IUPAC_INCHIKEY>
JERHKDWYEJSGRS-AZBAQYFBSA-N

> <PUBCHEM_XLOGP3_AA>
-1.8

> <PUBCHEM_EXACT_MASS>
260.08960285

> <PUBCHEM_MOLECULAR_FORMULA>
C11H16O7

> <PUBCHEM_MOLECULAR_WEIGHT>
260.24

> <PUBCHEM_OPENEYE_CAN_SMILES>
CC1(C(C(C(C1O)O)C(C=O)C(=O)OC)C=O)O

> <PUBCHEM_OPENEYE_ISO_SMILES>
C[C@]1([C@H]([C@H]([C@@H]([C@@H]1O)O)C(C=O)C(=O)OC)C=O)O

> <PUBCHEM_CACTVS_TPSA>
121

> <PUBCHEM_MONOISOTOPIC_WEIGHT>
260.08960285

> <PUBCHEM_TOTAL_CHARGE>
0

> <PUBCHEM_HEAVY_ATOM_COUNT>
18

> <PUBCHEM_ATOM_DEF_STEREO_COUNT>
5

> <PUBCHEM_ATOM_UDEF_STEREO_COUNT>
1

> <PUBCHEM_BOND_DEF_STEREO_COUNT>
0

> <PUBCHEM_BOND_UDEF_STEREO_COUNT>
0

> <PUBCHEM_ISOTOPIC_ATOM_COUNT>
0

> <PUBCHEM_COMPONENT_COUNT>
1

> <PUBCHEM_CACTVS_TAUTO_COUNT>
-1

> <PUBCHEM_COORDINATE_TYPE>
1
5
255

> <PUBCHEM_BONDANNOTATIONS>
9  1  5
10  15  6
13  17  3
11  2  5
12  3  5
8  13  6

$$$$
