 
  -OEChem-10192103402D

 71 74  0     1  0  0  0  0  0999 V2000
    4.2690   -3.1330    0.0000 O   0  0  0  0  0  0  0  0  0  0  0  0
   10.2022    1.5341    0.0000 O   0  0  0  0  0  0  0  0  0  0  0  0
    6.0010   -3.1330    0.0000 O   0  0  0  0  0  0  0  0  0  0  0  0
    4.2690   -6.1330    0.0000 O   0  0  0  0  0  0  0  0  0  0  0  0
    2.5369   -5.1330    0.0000 O   0  0  0  0  0  0  0  0  0  0  0  0
    6.0010   -5.1330    0.0000 O   0  0  0  0  0  0  0  0  0  0  0  0
    7.1620    2.8770    0.0000 O   0  0  0  0  0  0  0  0  0  0  0  0
    2.5369   -2.1330    0.0000 O   0  0  0  0  0  0  0  0  0  0  0  0
   10.3312   -0.6330    0.0000 O   0  0  0  0  0  0  0  0  0  0  0  0
   12.7970    4.1740    0.0000 O   0  0  0  0  0  0  0  0  0  0  0  0
   11.7970    5.9060    0.0000 O   0  0  0  0  0  0  0  0  0  0  0  0
    4.2690   -5.1330    0.0000 C   0  0  1  0  0  0  0  0  0  0  0  0
    3.4030   -4.6330    0.0000 C   0  0  1  0  0  0  0  0  0  0  0  0
    5.1350   -4.6330    0.0000 C   0  0  2  0  0  0  0  0  0  0  0  0
    8.8083    2.3389    0.0000 C   0  0  3  0  0  0  0  0  0  0  0  0
    3.4030   -3.6330    0.0000 C   0  0  1  0  0  0  0  0  0  0  0  0
    5.1350   -3.6330    0.0000 C   0  0  1  0  0  0  0  0  0  0  0  0
    9.7970    2.4419    0.0000 C   0  0  3  0  0  0  0  0  0  0  0  0
    8.5991    1.3671    0.0000 C   0  0  0  0  0  0  0  0  0  0  0  0
    9.4651    0.8670    0.0000 C   0  0  0  0  0  0  0  0  0  0  0  0
    8.1405    3.0832    0.0000 C   0  0  0  0  0  0  0  0  0  0  0  0
    2.5369   -3.1330    0.0000 C   0  0  0  0  0  0  0  0  0  0  0  0
    7.7331    0.8670    0.0000 C   0  0  0  0  0  0  0  0  0  0  0  0
    7.7331   -0.1330    0.0000 C   0  0  0  0  0  0  0  0  0  0  0  0
   10.2970    3.3079    0.0000 C   0  0  0  0  0  0  0  0  0  0  0  0
    6.8671   -0.6330    0.0000 C   0  0  0  0  0  0  0  0  0  0  0  0
    6.8671   -1.6329    0.0000 C   0  0  0  0  0  0  0  0  0  0  0  0
    6.0010   -2.1330    0.0000 C   0  0  0  0  0  0  0  0  0  0  0  0
    9.4651   -0.1330    0.0000 C   0  0  0  0  0  0  0  0  0  0  0  0
    8.5991   -0.6330    0.0000 C   0  0  0  0  0  0  0  0  0  0  0  0
   11.2970    3.3079    0.0000 C   0  0  0  0  0  0  0  0  0  0  0  0
    9.7970    4.1740    0.0000 C   0  0  0  0  0  0  0  0  0  0  0  0
   11.7970    4.1740    0.0000 C   0  0  0  0  0  0  0  0  0  0  0  0
   10.2970    5.0400    0.0000 C   0  0  0  0  0  0  0  0  0  0  0  0
   11.2970    5.0400    0.0000 C   0  0  0  0  0  0  0  0  0  0  0  0
   10.3312   -1.6329    0.0000 C   0  0  0  0  0  0  0  0  0  0  0  0
   13.2970    3.3079    0.0000 C   0  0  0  0  0  0  0  0  0  0  0  0
    3.7320   -5.4430    0.0000 H   0  0  0  0  0  0  0  0  0  0  0  0
    3.4030   -5.2530    0.0000 H   0  0  0  0  0  0  0  0  0  0  0  0
    5.1350   -5.2530    0.0000 H   0  0  0  0  0  0  0  0  0  0  0  0
    8.2091    2.1797    0.0000 H   0  0  0  0  0  0  0  0  0  0  0  0
    3.4030   -3.0130    0.0000 H   0  0  0  0  0  0  0  0  0  0  0  0
    5.1350   -3.0130    0.0000 H   0  0  0  0  0  0  0  0  0  0  0  0
    9.4596    2.9620    0.0000 H   0  0  0  0  0  0  0  0  0  0  0  0
    8.6668    3.4108    0.0000 H   0  0  0  0  0  0  0  0  0  0  0  0
    7.9092    3.6584    0.0000 H   0  0  0  0  0  0  0  0  0  0  0  0
    1.9264   -3.0253    0.0000 H   0  0  0  0  0  0  0  0  0  0  0  0
    2.3249   -3.7156    0.0000 H   0  0  0  0  0  0  0  0  0  0  0  0
    7.1962    1.1770    0.0000 H   0  0  0  0  0  0  0  0  0  0  0  0
    6.6550   -0.0503    0.0000 H   0  0  0  0  0  0  0  0  0  0  0  0
    6.2565   -0.7406    0.0000 H   0  0  0  0  0  0  0  0  0  0  0  0
    7.0791   -2.2156    0.0000 H   0  0  0  0  0  0  0  0  0  0  0  0
    7.4776   -1.5253    0.0000 H   0  0  0  0  0  0  0  0  0  0  0  0
    5.7890   -1.5503    0.0000 H   0  0  0  0  0  0  0  0  0  0  0  0
    5.3905   -2.2406    0.0000 H   0  0  0  0  0  0  0  0  0  0  0  0
    8.5991   -1.2530    0.0000 H   0  0  0  0  0  0  0  0  0  0  0  0
    3.7320   -6.4430    0.0000 H   0  0  0  0  0  0  0  0  0  0  0  0
    2.0000   -4.8229    0.0000 H   0  0  0  0  0  0  0  0  0  0  0  0
    6.5380   -4.8229    0.0000 H   0  0  0  0  0  0  0  0  0  0  0  0
   11.6070    2.7710    0.0000 H   0  0  0  0  0  0  0  0  0  0  0  0
    9.1770    4.1740    0.0000 H   0  0  0  0  0  0  0  0  0  0  0  0
    6.7479    3.3384    0.0000 H   0  0  0  0  0  0  0  0  0  0  0  0
    2.0000   -1.8230    0.0000 H   0  0  0  0  0  0  0  0  0  0  0  0
    9.9870    5.5769    0.0000 H   0  0  0  0  0  0  0  0  0  0  0  0
    9.7112   -1.6329    0.0000 H   0  0  0  0  0  0  0  0  0  0  0  0
   10.3312   -2.2529    0.0000 H   0  0  0  0  0  0  0  0  0  0  0  0
   10.9512   -1.6329    0.0000 H   0  0  0  0  0  0  0  0  0  0  0  0
   11.4870    6.4430    0.0000 H   0  0  0  0  0  0  0  0  0  0  0  0
   12.7601    2.9979    0.0000 H   0  0  0  0  0  0  0  0  0  0  0  0
   13.6070    2.7710    0.0000 H   0  0  0  0  0  0  0  0  0  0  0  0
   13.8340    3.6179    0.0000 H   0  0  0  0  0  0  0  0  0  0  0  0
  1 16  1  0  0  0  0
  1 17  1  0  0  0  0
  2 18  1  0  0  0  0
  2 20  1  0  0  0  0
 17  3  1  1  0  0  0
  3 28  1  0  0  0  0
 12  4  1  1  0  0  0
  4 57  1  0  0  0  0
 13  5  1  6  0  0  0
  5 58  1  0  0  0  0
 14  6  1  6  0  0  0
  6 59  1  0  0  0  0
  7 21  1  0  0  0  0
  7 62  1  0  0  0  0
  8 22  1  0  0  0  0
  8 63  1  0  0  0  0
  9 29  1  0  0  0  0
  9 36  1  0  0  0  0
 10 33  1  0  0  0  0
 10 37  1  0  0  0  0
 11 35  1  0  0  0  0
 11 68  1  0  0  0  0
 12 13  1  0  0  0  0
 12 14  1  0  0  0  0
 12 38  1  0  0  0  0
 13 16  1  0  0  0  0
 13 39  1  0  0  0  0
 14 17  1  0  0  0  0
 14 40  1  0  0  0  0
 15 18  1  0  0  0  0
 15 19  1  0  0  0  0
 15 21  1  0  0  0  0
 15 41  1  0  0  0  0
 16 22  1  1  0  0  0
 16 42  1  0  0  0  0
 17 43  1  0  0  0  0
 18 25  1  0  0  0  0
 18 44  1  0  0  0  0
 19 20  2  0  0  0  0
 19 23  1  0  0  0  0
 20 29  1  0  0  0  0
 21 45  1  0  0  0  0
 21 46  1  0  0  0  0
 22 47  1  0  0  0  0
 22 48  1  0  0  0  0
 23 24  2  0  0  0  0
 23 49  1  0  0  0  0
 24 26  1  0  0  0  0
 24 30  1  0  0  0  0
 25 31  2  0  0  0  0
 25 32  1  0  0  0  0
 26 27  1  0  0  0  0
 26 50  1  0  0  0  0
 26 51  1  0  0  0  0
 27 28  1  0  0  0  0
 27 52  1  0  0  0  0
 27 53  1  0  0  0  0
 28 54  1  0  0  0  0
 28 55  1  0  0  0  0
 29 30  2  0  0  0  0
 30 56  1  0  0  0  0
 31 33  1  0  0  0  0
 31 60  1  0  0  0  0
 32 34  2  0  0  0  0
 32 61  1  0  0  0  0
 33 35  2  0  0  0  0
 34 35  1  0  0  0  0
 34 64  1  0  0  0  0
 36 65  1  0  0  0  0
 36 66  1  0  0  0  0
 36 67  1  0  0  0  0
 37 69  1  0  0  0  0
 37 70  1  0  0  0  0
 37 71  1  0  0  0  0
M  END
> <PUBCHEM_COMPOUND_CID>
25225302

> <PUBCHEM_COMPOUND_CANONICALIZED>
1

> <PUBCHEM_CACTVS_COMPLEXITY>
697

> <PUBCHEM_CACTVS_HBOND_ACCEPTOR>
11

> <PUBCHEM_CACTVS_HBOND_DONOR>
6

> <PUBCHEM_CACTVS_ROTATABLE_BOND>
10

> <PUBCHEM_CACTVS_SUBSKEYS>
AAADcfB4PAAAAAAAAAAAAAAAAAAAASAAAAA0YIAAAAAAAEgBQAAAGgAACAAADRSwmAMyDoAABgCAAiBCAAACCAAgIAAIiAAGiIgdNiKGMRqieCOlwBEPuAfA4PwOoAADAAAIQABAAAYAABCAAAAAAAAAAA==

> <PUBCHEM_IUPAC_OPENEYE_NAME>
(2R,3R,4S,5S,6R)-2-[3-[2-(4-hydroxy-3-methoxy-phenyl)-3-(hydroxymethyl)-7-methoxy-2,3-dihydrobenzofuran-5-yl]propoxy]-6-(hydroxymethyl)tetrahydropyran-3,4,5-triol

> <PUBCHEM_IUPAC_CAS_NAME>
(2R,3R,4S,5S,6R)-2-[3-[2-(4-hydroxy-3-methoxyphenyl)-3-(hydroxymethyl)-7-methoxy-2,3-dihydrobenzofuran-5-yl]propoxy]-6-(hydroxymethyl)oxane-3,4,5-triol

> <PUBCHEM_IUPAC_NAME_MARKUP>
(2<I>R</I>,3<I>R</I>,4<I>S</I>,5<I>S</I>,6<I>R</I>)-2-[3-[2-(4-hydroxy-3-methoxyphenyl)-3-(hydroxymethyl)-7-methoxy-2,3-dihydro-1-benzofuran-5-yl]propoxy]-6-(hydroxymethyl)oxane-3,4,5-triol

> <PUBCHEM_IUPAC_NAME>
(2R,3R,4S,5S,6R)-2-[3-[2-(4-hydroxy-3-methoxyphenyl)-3-(hydroxymethyl)-7-methoxy-2,3-dihydro-1-benzofuran-5-yl]propoxy]-6-(hydroxymethyl)oxane-3,4,5-triol

> <PUBCHEM_IUPAC_SYSTEMATIC_NAME>
(2R,3S,4S,5R,6R)-2-(hydroxymethyl)-6-[3-[3-(hydroxymethyl)-7-methoxy-2-(3-methoxy-4-oxidanyl-phenyl)-2,3-dihydro-1-benzofuran-5-yl]propoxy]oxane-3,4,5-triol

> <PUBCHEM_IUPAC_TRADITIONAL_NAME>
(2R,3R,4S,5S,6R)-2-[3-[2-(4-hydroxy-3-methoxy-phenyl)-7-methoxy-3-methylol-coumaran-5-yl]propoxy]-6-methylol-tetrahydropyran-3,4,5-triol

> <PUBCHEM_IUPAC_INCHI>
InChI=1S/C26H34O11/c1-33-18-10-14(5-6-17(18)29)24-16(11-27)15-8-13(9-19(34-2)25(15)37-24)4-3-7-35-26-23(32)22(31)21(30)20(12-28)36-26/h5-6,8-10,16,20-24,26-32H,3-4,7,11-12H2,1-2H3/t16?,20-,21-,22+,23-,24?,26-/m1/s1

> <PUBCHEM_IUPAC_INCHIKEY>
DVWKMCPPEMUHBE-RAGYRXETSA-N

> <PUBCHEM_XLOGP3_AA>
0.5

> <PUBCHEM_EXACT_MASS>
522.21011190

> <PUBCHEM_MOLECULAR_FORMULA>
C26H34O11

> <PUBCHEM_MOLECULAR_WEIGHT>
522.5

> <PUBCHEM_OPENEYE_CAN_SMILES>
COC1=CC(=CC2=C1OC(C2CO)C3=CC(=C(C=C3)O)OC)CCCOC4C(C(C(C(O4)CO)O)O)O

> <PUBCHEM_OPENEYE_ISO_SMILES>
COC1=CC(=CC2=C1OC(C2CO)C3=CC(=C(C=C3)O)OC)CCCO[C@H]4[C@@H]([C@H]([C@@H]([C@H](O4)CO)O)O)O

> <PUBCHEM_CACTVS_TPSA>
168

> <PUBCHEM_MONOISOTOPIC_WEIGHT>
522.21011190

> <PUBCHEM_TOTAL_CHARGE>
0

> <PUBCHEM_HEAVY_ATOM_COUNT>
37

> <PUBCHEM_ATOM_DEF_STEREO_COUNT>
5

> <PUBCHEM_ATOM_UDEF_STEREO_COUNT>
2

> <PUBCHEM_BOND_DEF_STEREO_COUNT>
0

> <PUBCHEM_BOND_UDEF_STEREO_COUNT>
0

> <PUBCHEM_ISOTOPIC_ATOM_COUNT>
0

> <PUBCHEM_COMPONENT_COUNT>
1

> <PUBCHEM_CACTVS_TAUTO_COUNT>
-1

> <PUBCHEM_COORDINATE_TYPE>
1
5
255

> <PUBCHEM_BONDANNOTATIONS>
15  21  3
16  22  5
18  25  3
19  20  8
19  23  8
20  29  8
23  24  8
24  30  8
25  31  8
25  32  8
29  30  8
17  3  5
31  33  8
32  34  8
33  35  8
34  35  8
12  4  5
13  5  6
14  6  6

$$$$
