 
  -OEChem-10192104142D

 49 51  0     0  0  0  0  0  0999 V2000
    6.9338    2.4069    0.0000 O   0  0  0  0  0  0  0  0  0  0  0  0
    5.1854    2.4415    0.0000 O   0  0  0  0  0  0  0  0  0  0  0  0
    8.6822    2.4415    0.0000 O   0  0  0  0  0  0  0  0  0  0  0  0
    9.5424   -2.1377    0.0000 O   0  0  0  0  0  0  0  0  0  0  0  0
    4.3252   -2.1377    0.0000 O   0  0  0  0  0  0  0  0  0  0  0  0
    2.5357    0.9344    0.0000 O   0  0  0  0  0  0  0  0  0  0  0  0
   11.3319    0.9344    0.0000 O   0  0  0  0  0  0  0  0  0  0  0  0
    6.9338   -0.5931    0.0000 C   0  0  0  0  0  0  0  0  0  0  0  0
    7.7998   -0.0931    0.0000 C   0  0  0  0  0  0  0  0  0  0  0  0
    6.0678   -0.0931    0.0000 C   0  0  0  0  0  0  0  0  0  0  0  0
    7.7998    0.9069    0.0000 C   0  0  0  0  0  0  0  0  0  0  0  0
    6.0678    0.9069    0.0000 C   0  0  0  0  0  0  0  0  0  0  0  0
    6.9338    1.4069    0.0000 C   0  0  0  0  0  0  0  0  0  0  0  0
    8.6938   -0.6278    0.0000 C   0  0  0  0  0  0  0  0  0  0  0  0
    5.1738   -0.6278    0.0000 C   0  0  0  0  0  0  0  0  0  0  0  0
    6.9338   -1.5931    0.0000 C   0  0  0  0  0  0  0  0  0  0  0  0
    5.1738    1.4415    0.0000 C   0  0  0  0  0  0  0  0  0  0  0  0
    8.6938    1.4415    0.0000 C   0  0  0  0  0  0  0  0  0  0  0  0
    4.2678    0.9277    0.0000 C   0  0  0  0  0  0  0  0  0  0  0  0
    9.5998    0.9277    0.0000 C   0  0  0  0  0  0  0  0  0  0  0  0
    9.5998   -0.1139    0.0000 C   0  0  0  0  0  0  0  0  0  0  0  0
    4.2678   -0.1139    0.0000 C   0  0  0  0  0  0  0  0  0  0  0  0
    8.6822   -1.6277    0.0000 C   0  0  0  0  0  0  0  0  0  0  0  0
    5.1854   -1.6277    0.0000 C   0  0  0  0  0  0  0  0  0  0  0  0
    6.0678   -2.0931    0.0000 C   0  0  0  0  0  0  0  0  0  0  0  0
    3.4037    1.4310    0.0000 C   0  0  0  0  0  0  0  0  0  0  0  0
   10.4639    1.4310    0.0000 C   0  0  0  0  0  0  0  0  0  0  0  0
    7.1459   -2.1757    0.0000 H   0  0  0  0  0  0  0  0  0  0  0  0
    7.5444   -1.4855    0.0000 H   0  0  0  0  0  0  0  0  0  0  0  0
   10.1356   -0.4260    0.0000 H   0  0  0  0  0  0  0  0  0  0  0  0
    3.7320   -0.4260    0.0000 H   0  0  0  0  0  0  0  0  0  0  0  0
    8.0729   -1.5130    0.0000 H   0  0  0  0  0  0  0  0  0  0  0  0
    8.4634   -2.2078    0.0000 H   0  0  0  0  0  0  0  0  0  0  0  0
    5.4042   -2.2078    0.0000 H   0  0  0  0  0  0  0  0  0  0  0  0
    5.7947   -1.5130    0.0000 H   0  0  0  0  0  0  0  0  0  0  0  0
    5.7578   -1.5562    0.0000 H   0  0  0  0  0  0  0  0  0  0  0  0
    5.5308   -2.4031    0.0000 H   0  0  0  0  0  0  0  0  0  0  0  0
    6.3778   -2.6301    0.0000 H   0  0  0  0  0  0  0  0  0  0  0  0
    3.8040    1.9044    0.0000 H   0  0  0  0  0  0  0  0  0  0  0  0
    3.0070    1.9075    0.0000 H   0  0  0  0  0  0  0  0  0  0  0  0
   10.8606    1.9075    0.0000 H   0  0  0  0  0  0  0  0  0  0  0  0
   10.0636    1.9044    0.0000 H   0  0  0  0  0  0  0  0  0  0  0  0
    7.4707    2.7169    0.0000 H   0  0  0  0  0  0  0  0  0  0  0  0
    4.6521    2.7577    0.0000 H   0  0  0  0  0  0  0  0  0  0  0  0
    9.2155    2.7577    0.0000 H   0  0  0  0  0  0  0  0  0  0  0  0
    9.5352   -2.7577    0.0000 H   0  0  0  0  0  0  0  0  0  0  0  0
    4.3324   -2.7577    0.0000 H   0  0  0  0  0  0  0  0  0  0  0  0
    2.0000    1.2464    0.0000 H   0  0  0  0  0  0  0  0  0  0  0  0
   11.8676    1.2464    0.0000 H   0  0  0  0  0  0  0  0  0  0  0  0
  1 13  1  0  0  0  0
  1 43  1  0  0  0  0
  2 17  1  0  0  0  0
  2 44  1  0  0  0  0
  3 18  1  0  0  0  0
  3 45  1  0  0  0  0
  4 23  1  0  0  0  0
  4 46  1  0  0  0  0
  5 24  1  0  0  0  0
  5 47  1  0  0  0  0
  6 26  1  0  0  0  0
  6 48  1  0  0  0  0
  7 27  1  0  0  0  0
  7 49  1  0  0  0  0
  8  9  2  0  0  0  0
  8 10  1  0  0  0  0
  8 16  1  0  0  0  0
  9 11  1  0  0  0  0
  9 14  1  0  0  0  0
 10 12  2  0  0  0  0
 10 15  1  0  0  0  0
 11 13  2  0  0  0  0
 11 18  1  0  0  0  0
 12 13  1  0  0  0  0
 12 17  1  0  0  0  0
 14 21  2  0  0  0  0
 14 23  1  0  0  0  0
 15 22  2  0  0  0  0
 15 24  1  0  0  0  0
 16 25  1  0  0  0  0
 16 28  1  0  0  0  0
 16 29  1  0  0  0  0
 17 19  2  0  0  0  0
 18 20  2  0  0  0  0
 19 22  1  0  0  0  0
 19 26  1  0  0  0  0
 20 21  1  0  0  0  0
 20 27  1  0  0  0  0
 21 30  1  0  0  0  0
 22 31  1  0  0  0  0
 23 32  1  0  0  0  0
 23 33  1  0  0  0  0
 24 34  1  0  0  0  0
 24 35  1  0  0  0  0
 25 36  1  0  0  0  0
 25 37  1  0  0  0  0
 25 38  1  0  0  0  0
 26 39  1  0  0  0  0
 26 40  1  0  0  0  0
 27 41  1  0  0  0  0
 27 42  1  0  0  0  0
M  END
> <PUBCHEM_COMPOUND_CID>
89630266

> <PUBCHEM_COMPOUND_CANONICALIZED>
1

> <PUBCHEM_CACTVS_COMPLEXITY>
449

> <PUBCHEM_CACTVS_HBOND_ACCEPTOR>
7

> <PUBCHEM_CACTVS_HBOND_DONOR>
7

> <PUBCHEM_CACTVS_ROTATABLE_BOND>
5

> <PUBCHEM_CACTVS_SUBSKEYS>
AAADceB4OAAAAAAAAAAAAAAAAAAAAAAAAAAwYMAAAAAAAADBVAAAGgAACAAADASgmAIyBsAAAgCAAiBCAAACAAAgIAAAiAAECIgINyKCERKAcAAlwBUImAeA4PQO4AADAAAYAADAAAYAADAAAAAAAAAAAA==

> <PUBCHEM_IUPAC_OPENEYE_NAME>
10-ethyl-2,4,5,7-tetrakis(hydroxymethyl)anthracene-1,8,9-triol

> <PUBCHEM_IUPAC_CAS_NAME>
10-ethyl-2,4,5,7-tetrakis(hydroxymethyl)anthracene-1,8,9-triol

> <PUBCHEM_IUPAC_NAME_MARKUP>
10-ethyl-2,4,5,7-tetrakis(hydroxymethyl)anthracene-1,8,9-triol

> <PUBCHEM_IUPAC_NAME>
10-ethyl-2,4,5,7-tetrakis(hydroxymethyl)anthracene-1,8,9-triol

> <PUBCHEM_IUPAC_SYSTEMATIC_NAME>
10-ethyl-2,4,5,7-tetrakis(hydroxymethyl)anthracene-1,8,9-triol

> <PUBCHEM_IUPAC_TRADITIONAL_NAME>
10-ethyl-2,4,5,7-tetramethylol-anthracene-1,8,9-triol

> <PUBCHEM_IUPAC_INCHI>
InChI=1S/C20H22O7/c1-2-13-14-9(5-21)3-11(7-23)18(25)16(14)20(27)17-15(13)10(6-22)4-12(8-24)19(17)26/h3-4,21-27H,2,5-8H2,1H3

> <PUBCHEM_IUPAC_INCHIKEY>
JYENOFFZPPXWOL-UHFFFAOYSA-N

> <PUBCHEM_XLOGP3_AA>
1.7

> <PUBCHEM_EXACT_MASS>
374.13655304

> <PUBCHEM_MOLECULAR_FORMULA>
C20H22O7

> <PUBCHEM_MOLECULAR_WEIGHT>
374.4

> <PUBCHEM_OPENEYE_CAN_SMILES>
CCC1=C2C(=CC(=C(C2=C(C3=C1C(=CC(=C3O)CO)CO)O)O)CO)CO

> <PUBCHEM_OPENEYE_ISO_SMILES>
CCC1=C2C(=CC(=C(C2=C(C3=C1C(=CC(=C3O)CO)CO)O)O)CO)CO

> <PUBCHEM_CACTVS_TPSA>
142

> <PUBCHEM_MONOISOTOPIC_WEIGHT>
374.13655304

> <PUBCHEM_TOTAL_CHARGE>
0

> <PUBCHEM_HEAVY_ATOM_COUNT>
27

> <PUBCHEM_ATOM_DEF_STEREO_COUNT>
0

> <PUBCHEM_ATOM_UDEF_STEREO_COUNT>
0

> <PUBCHEM_BOND_DEF_STEREO_COUNT>
0

> <PUBCHEM_BOND_UDEF_STEREO_COUNT>
0

> <PUBCHEM_ISOTOPIC_ATOM_COUNT>
0

> <PUBCHEM_COMPONENT_COUNT>
1

> <PUBCHEM_CACTVS_TAUTO_COUNT>
-1

> <PUBCHEM_COORDINATE_TYPE>
1
5
255

> <PUBCHEM_BONDANNOTATIONS>
10  12  8
10  15  8
11  13  8
11  18  8
12  13  8
12  17  8
14  21  8
15  22  8
17  19  8
18  20  8
19  22  8
20  21  8
8  10  8
8  9  8
9  11  8
9  14  8

$$$$
