 
  -OEChem-10192104402D

 59 58  0     1  0  0  0  0  0999 V2000
    8.5991   -1.1550    0.0000 O   0  0  0  0  0  0  0  0  0  0  0  0
    9.4651    1.3450    0.0000 O   0  0  0  0  0  0  0  0  0  0  0  0
    2.5369    0.3450    0.0000 O   0  0  0  0  0  0  0  0  0  0  0  0
   17.2594   -0.1550    0.0000 O   0  0  0  0  0  0  0  0  0  0  0  0
   16.3933    1.3450    0.0000 O   0  0  0  0  0  0  0  0  0  0  0  0
    8.5991   -0.1550    0.0000 C   0  0  3  0  0  0  0  0  0  0  0  0
    9.4651    0.3450    0.0000 C   0  0  3  0  0  0  0  0  0  0  0  0
    7.7331    0.3450    0.0000 C   0  0  0  0  0  0  0  0  0  0  0  0
   10.3312   -0.1550    0.0000 C   0  0  0  0  0  0  0  0  0  0  0  0
    6.8671   -0.1550    0.0000 C   0  0  0  0  0  0  0  0  0  0  0  0
   11.1972    0.3450    0.0000 C   0  0  0  0  0  0  0  0  0  0  0  0
    6.0010    0.3450    0.0000 C   0  0  0  0  0  0  0  0  0  0  0  0
   12.0632   -0.1550    0.0000 C   0  0  0  0  0  0  0  0  0  0  0  0
    5.1350   -0.1550    0.0000 C   0  0  0  0  0  0  0  0  0  0  0  0
    4.2690    0.3450    0.0000 C   0  0  0  0  0  0  0  0  0  0  0  0
   12.9292    0.3450    0.0000 C   0  0  0  0  0  0  0  0  0  0  0  0
    3.4030   -0.1550    0.0000 C   0  0  3  0  0  0  0  0  0  0  0  0
   13.7953   -0.1550    0.0000 C   0  0  0  0  0  0  0  0  0  0  0  0
   14.6613    0.3450    0.0000 C   0  0  0  0  0  0  0  0  0  0  0  0
    3.4030   -1.1550    0.0000 C   0  0  0  0  0  0  0  0  0  0  0  0
   15.5273   -0.1550    0.0000 C   0  0  0  0  0  0  0  0  0  0  0  0
    2.5369   -1.6550    0.0000 C   0  0  0  0  0  0  0  0  0  0  0  0
   16.3933    0.3450    0.0000 C   0  0  0  0  0  0  0  0  0  0  0  0
    8.0622   -0.4650    0.0000 H   0  0  0  0  0  0  0  0  0  0  0  0
   10.0021    0.6550    0.0000 H   0  0  0  0  0  0  0  0  0  0  0  0
    8.1316    0.8199    0.0000 H   0  0  0  0  0  0  0  0  0  0  0  0
    7.3346    0.8199    0.0000 H   0  0  0  0  0  0  0  0  0  0  0  0
    9.9326   -0.6299    0.0000 H   0  0  0  0  0  0  0  0  0  0  0  0
   10.7297   -0.6299    0.0000 H   0  0  0  0  0  0  0  0  0  0  0  0
    6.4685   -0.6299    0.0000 H   0  0  0  0  0  0  0  0  0  0  0  0
    7.2656   -0.6299    0.0000 H   0  0  0  0  0  0  0  0  0  0  0  0
   11.5957    0.8199    0.0000 H   0  0  0  0  0  0  0  0  0  0  0  0
   10.7987    0.8199    0.0000 H   0  0  0  0  0  0  0  0  0  0  0  0
    6.3996    0.8199    0.0000 H   0  0  0  0  0  0  0  0  0  0  0  0
    5.6025    0.8199    0.0000 H   0  0  0  0  0  0  0  0  0  0  0  0
   11.6647   -0.6299    0.0000 H   0  0  0  0  0  0  0  0  0  0  0  0
   12.4617   -0.6299    0.0000 H   0  0  0  0  0  0  0  0  0  0  0  0
    4.7365   -0.6299    0.0000 H   0  0  0  0  0  0  0  0  0  0  0  0
    5.5335   -0.6299    0.0000 H   0  0  0  0  0  0  0  0  0  0  0  0
    4.6675    0.8199    0.0000 H   0  0  0  0  0  0  0  0  0  0  0  0
    3.8705    0.8199    0.0000 H   0  0  0  0  0  0  0  0  0  0  0  0
   13.3278    0.8199    0.0000 H   0  0  0  0  0  0  0  0  0  0  0  0
   12.5307    0.8199    0.0000 H   0  0  0  0  0  0  0  0  0  0  0  0
    3.4030    0.4650    0.0000 H   0  0  0  0  0  0  0  0  0  0  0  0
   13.3967   -0.6299    0.0000 H   0  0  0  0  0  0  0  0  0  0  0  0
   14.1938   -0.6299    0.0000 H   0  0  0  0  0  0  0  0  0  0  0  0
    8.0622   -1.4650    0.0000 H   0  0  0  0  0  0  0  0  0  0  0  0
   15.0598    0.8199    0.0000 H   0  0  0  0  0  0  0  0  0  0  0  0
   14.2628    0.8199    0.0000 H   0  0  0  0  0  0  0  0  0  0  0  0
   10.0021    1.6550    0.0000 H   0  0  0  0  0  0  0  0  0  0  0  0
    3.6150   -1.7376    0.0000 H   0  0  0  0  0  0  0  0  0  0  0  0
    4.0135   -1.0473    0.0000 H   0  0  0  0  0  0  0  0  0  0  0  0
   15.1288   -0.6299    0.0000 H   0  0  0  0  0  0  0  0  0  0  0  0
   15.9258   -0.6299    0.0000 H   0  0  0  0  0  0  0  0  0  0  0  0
    2.2269   -1.1181    0.0000 H   0  0  0  0  0  0  0  0  0  0  0  0
    2.0000   -1.9650    0.0000 H   0  0  0  0  0  0  0  0  0  0  0  0
    2.8469   -2.1919    0.0000 H   0  0  0  0  0  0  0  0  0  0  0  0
    2.0000    0.0350    0.0000 H   0  0  0  0  0  0  0  0  0  0  0  0
   17.7963    0.1550    0.0000 H   0  0  0  0  0  0  0  0  0  0  0  0
  1  6  1  0  0  0  0
  1 47  1  0  0  0  0
  2  7  1  0  0  0  0
  2 50  1  0  0  0  0
  3 17  1  0  0  0  0
  3 58  1  0  0  0  0
  4 23  1  0  0  0  0
  4 59  1  0  0  0  0
  5 23  2  0  0  0  0
  6  7  1  0  0  0  0
  6  8  1  0  0  0  0
  6 24  1  0  0  0  0
  7  9  1  0  0  0  0
  7 25  1  0  0  0  0
  8 10  1  0  0  0  0
  8 26  1  0  0  0  0
  8 27  1  0  0  0  0
  9 11  1  0  0  0  0
  9 28  1  0  0  0  0
  9 29  1  0  0  0  0
 10 12  1  0  0  0  0
 10 30  1  0  0  0  0
 10 31  1  0  0  0  0
 11 13  1  0  0  0  0
 11 32  1  0  0  0  0
 11 33  1  0  0  0  0
 12 14  1  0  0  0  0
 12 34  1  0  0  0  0
 12 35  1  0  0  0  0
 13 16  1  0  0  0  0
 13 36  1  0  0  0  0
 13 37  1  0  0  0  0
 14 15  1  0  0  0  0
 14 38  1  0  0  0  0
 14 39  1  0  0  0  0
 15 17  1  0  0  0  0
 15 40  1  0  0  0  0
 15 41  1  0  0  0  0
 16 18  1  0  0  0  0
 16 42  1  0  0  0  0
 16 43  1  0  0  0  0
 17 20  1  0  0  0  0
 17 44  1  0  0  0  0
 18 19  1  0  0  0  0
 18 45  1  0  0  0  0
 18 46  1  0  0  0  0
 19 21  1  0  0  0  0
 19 48  1  0  0  0  0
 19 49  1  0  0  0  0
 20 22  1  0  0  0  0
 20 51  1  0  0  0  0
 20 52  1  0  0  0  0
 21 23  1  0  0  0  0
 21 53  1  0  0  0  0
 21 54  1  0  0  0  0
 22 55  1  0  0  0  0
 22 56  1  0  0  0  0
 22 57  1  0  0  0  0
M  END
> <PUBCHEM_COMPOUND_CID>
12400820

> <PUBCHEM_COMPOUND_CANONICALIZED>
1

> <PUBCHEM_CACTVS_COMPLEXITY>
283

> <PUBCHEM_CACTVS_HBOND_ACCEPTOR>
5

> <PUBCHEM_CACTVS_HBOND_DONOR>
4

> <PUBCHEM_CACTVS_ROTATABLE_BOND>
16

> <PUBCHEM_CACTVS_SUBSKEYS>
AAADcfB4OAAAAAAAAAAAAAAAAAAAAAAAAAAAAAAAAAAAAAAAAAAAGgAACAAACBSggAICCAAAAgAIAACQCAAAAAAAAAAAAAEAAAABEBIAAAAAQAAEAAABAAGIyKCAAAAAAAAAAAAAAAAAAAAAAAAAAAAAAA==

> <PUBCHEM_IUPAC_OPENEYE_NAME>
9,10,16-trihydroxyoctadecanoic acid

> <PUBCHEM_IUPAC_CAS_NAME>
9,10,16-trihydroxyoctadecanoic acid

> <PUBCHEM_IUPAC_NAME_MARKUP>
9,10,16-trihydroxyoctadecanoic acid

> <PUBCHEM_IUPAC_NAME>
9,10,16-trihydroxyoctadecanoic acid

> <PUBCHEM_IUPAC_SYSTEMATIC_NAME>
9,10,16-tris(oxidanyl)octadecanoic acid

> <PUBCHEM_IUPAC_TRADITIONAL_NAME>
9,10,16-trihydroxystearic acid

> <PUBCHEM_IUPAC_INCHI>
InChI=1S/C18H36O5/c1-2-15(19)11-7-6-9-13-17(21)16(20)12-8-4-3-5-10-14-18(22)23/h15-17,19-21H,2-14H2,1H3,(H,22,23)

> <PUBCHEM_IUPAC_INCHIKEY>
OLRGFYURXSMBAZ-UHFFFAOYSA-N

> <PUBCHEM_XLOGP3_AA>
3.4

> <PUBCHEM_EXACT_MASS>
332.25627424

> <PUBCHEM_MOLECULAR_FORMULA>
C18H36O5

> <PUBCHEM_MOLECULAR_WEIGHT>
332.5

> <PUBCHEM_OPENEYE_CAN_SMILES>
CCC(CCCCCC(C(CCCCCCCC(=O)O)O)O)O

> <PUBCHEM_OPENEYE_ISO_SMILES>
CCC(CCCCCC(C(CCCCCCCC(=O)O)O)O)O

> <PUBCHEM_CACTVS_TPSA>
98

> <PUBCHEM_MONOISOTOPIC_WEIGHT>
332.25627424

> <PUBCHEM_TOTAL_CHARGE>
0

> <PUBCHEM_HEAVY_ATOM_COUNT>
23

> <PUBCHEM_ATOM_DEF_STEREO_COUNT>
0

> <PUBCHEM_ATOM_UDEF_STEREO_COUNT>
3

> <PUBCHEM_BOND_DEF_STEREO_COUNT>
0

> <PUBCHEM_BOND_UDEF_STEREO_COUNT>
0

> <PUBCHEM_ISOTOPIC_ATOM_COUNT>
0

> <PUBCHEM_COMPONENT_COUNT>
1

> <PUBCHEM_CACTVS_TAUTO_COUNT>
-1

> <PUBCHEM_COORDINATE_TYPE>
1
5
255

> <PUBCHEM_BONDANNOTATIONS>
6  1  3
7  2  3
17  3  3

$$$$
