 
  -OEChem-10192104172D

 29 30  0     1  0  0  0  0  0999 V2000
    2.0000   -2.4404    0.0000 O   0  0  0  0  0  0  0  0  0  0  0  0
    4.5983   -1.9400    0.0000 O   0  0  0  0  0  0  0  0  0  0  0  0
    2.8663    1.0600    0.0000 O   0  0  0  0  0  0  0  0  0  0  0  0
    5.4644   -0.4400    0.0000 O   0  0  0  0  0  0  0  0  0  0  0  0
    3.7323    2.5600    0.0000 O   0  0  0  0  0  0  0  0  0  0  0  0
    2.0003   -1.4400    0.0000 C   0  0  2  0  0  0  0  0  0  0  0  0
    2.8663   -1.9400    0.0000 C   0  0  1  0  0  0  0  0  0  0  0  0
    2.0003   -0.4400    0.0000 C   0  0  0  0  0  0  0  0  0  0  0  0
    3.7323   -1.4400    0.0000 C   0  0  2  0  0  0  0  0  0  0  0  0
    2.8663    0.0600    0.0000 C   0  0  1  0  0  0  0  0  0  0  0  0
    3.7323   -0.4400    0.0000 C   0  0  0  0  0  0  0  0  0  0  0  0
    3.7323    0.5600    0.0000 C   0  0  0  0  0  0  0  0  0  0  0  0
    4.5983    0.0600    0.0000 C   0  0  0  0  0  0  0  0  0  0  0  0
    4.5983    1.0600    0.0000 C   0  0  0  0  0  0  0  0  0  0  0  0
    3.7323    1.5600    0.0000 C   0  0  0  0  0  0  0  0  0  0  0  0
    1.3803   -1.4399    0.0000 H   0  0  0  0  0  0  0  0  0  0  0  0
    3.1763   -2.4769    0.0000 H   0  0  0  0  0  0  0  0  0  0  0  0
    1.7882    0.1426    0.0000 H   0  0  0  0  0  0  0  0  0  0  0  0
    1.3897   -0.5477    0.0000 H   0  0  0  0  0  0  0  0  0  0  0  0
    4.2692   -1.1300    0.0000 H   0  0  0  0  0  0  0  0  0  0  0  0
    3.1763    0.5969    0.0000 H   0  0  0  0  0  0  0  0  0  0  0  0
    3.5202    0.1426    0.0000 H   0  0  0  0  0  0  0  0  0  0  0  0
    3.1217   -0.5477    0.0000 H   0  0  0  0  0  0  0  0  0  0  0  0
    4.0423    0.0231    0.0000 H   0  0  0  0  0  0  0  0  0  0  0  0
    4.2692    0.8700    0.0000 H   0  0  0  0  0  0  0  0  0  0  0  0
    3.4223    1.0969    0.0000 H   0  0  0  0  0  0  0  0  0  0  0  0
    4.5983   -2.5600    0.0000 H   0  0  0  0  0  0  0  0  0  0  0  0
    5.2089    0.9523    0.0000 H   0  0  0  0  0  0  0  0  0  0  0  0
    4.8104    1.6426    0.0000 H   0  0  0  0  0  0  0  0  0  0  0  0
  6  1  1  1  0  0  0
  7  1  1  1  0  0  0
  9  2  1  6  0  0  0
  2 27  1  0  0  0  0
  3 10  1  0  0  0  0
  3 15  1  0  0  0  0
  4 13  2  0  0  0  0
  5 15  2  0  0  0  0
  6  7  1  0  0  0  0
  6  8  1  0  0  0  0
  6 16  1  0  0  0  0
  7  9  1  0  0  0  0
  7 17  1  0  0  0  0
  8 10  1  0  0  0  0
  8 18  1  0  0  0  0
  8 19  1  0  0  0  0
  9 11  1  0  0  0  0
  9 20  1  0  0  0  0
 10 12  1  6  0  0  0
 10 21  1  0  0  0  0
 11 13  1  0  0  0  0
 11 22  1  0  0  0  0
 11 23  1  0  0  0  0
 12 24  1  0  0  0  0
 12 25  1  0  0  0  0
 12 26  1  0  0  0  0
 13 14  1  0  0  0  0
 14 15  1  0  0  0  0
 14 28  1  0  0  0  0
 14 29  1  0  0  0  0
M  END
> <PUBCHEM_COMPOUND_CID>
3083078

> <PUBCHEM_COMPOUND_CANONICALIZED>
1

> <PUBCHEM_CACTVS_COMPLEXITY>
288

> <PUBCHEM_CACTVS_HBOND_ACCEPTOR>
5

> <PUBCHEM_CACTVS_HBOND_DONOR>
1

> <PUBCHEM_CACTVS_ROTATABLE_BOND>
0

> <PUBCHEM_CACTVS_SUBSKEYS>
AAADccBwOAAAAAAAAAAAAAAAEgAAAAAAAAAAAAAAAAAAAACQAAAAGgAACAAACBSggAICCAAABgAIAICQCAAAAAAAAAAAAAEAAAABEBYIAAACQAAFIAADAAHK7KzAAAAAAAAAAAAAAAAAAAAAAAAAAAAAAA==

> <PUBCHEM_IUPAC_OPENEYE_NAME>
(1S,3R,9S,10R)-9-hydroxy-3-methyl-4,11-dioxabicyclo[8.1.0]undecane-5,7-dione

> <PUBCHEM_IUPAC_CAS_NAME>
(1S,3R,9S,10R)-9-hydroxy-3-methyl-4,11-dioxabicyclo[8.1.0]undecane-5,7-dione

> <PUBCHEM_IUPAC_NAME_MARKUP>
(1<I>S</I>,3<I>R</I>,9<I>S</I>,10<I>R</I>)-9-hydroxy-3-methyl-4,11-dioxabicyclo[8.1.0]undecane-5,7-dione

> <PUBCHEM_IUPAC_NAME>
(1S,3R,9S,10R)-9-hydroxy-3-methyl-4,11-dioxabicyclo[8.1.0]undecane-5,7-dione

> <PUBCHEM_IUPAC_SYSTEMATIC_NAME>
(1S,3R,9S,10R)-3-methyl-9-oxidanyl-4,11-dioxabicyclo[8.1.0]undecane-5,7-dione

> <PUBCHEM_IUPAC_TRADITIONAL_NAME>
(1S,3R,9S,10R)-9-hydroxy-3-methyl-4,11-dioxabicyclo[8.1.0]undecane-5,7-quinone

> <PUBCHEM_IUPAC_INCHI>
InChI=1S/C10H14O5/c1-5-2-8-10(15-8)7(12)3-6(11)4-9(13)14-5/h5,7-8,10,12H,2-4H2,1H3/t5-,7+,8+,10-/m1/s1

> <PUBCHEM_IUPAC_INCHIKEY>
XYYINJYPZZOQLA-RKBOWSCOSA-N

> <PUBCHEM_XLOGP3_AA>
-0.3

> <PUBCHEM_EXACT_MASS>
214.08412354

> <PUBCHEM_MOLECULAR_FORMULA>
C10H14O5

> <PUBCHEM_MOLECULAR_WEIGHT>
214.21

> <PUBCHEM_OPENEYE_CAN_SMILES>
CC1CC2C(O2)C(CC(=O)CC(=O)O1)O

> <PUBCHEM_OPENEYE_ISO_SMILES>
C[C@@H]1C[C@H]2[C@H](O2)[C@H](CC(=O)CC(=O)O1)O

> <PUBCHEM_CACTVS_TPSA>
76.1

> <PUBCHEM_MONOISOTOPIC_WEIGHT>
214.08412354

> <PUBCHEM_TOTAL_CHARGE>
0

> <PUBCHEM_HEAVY_ATOM_COUNT>
15

> <PUBCHEM_ATOM_DEF_STEREO_COUNT>
4

> <PUBCHEM_ATOM_UDEF_STEREO_COUNT>
0

> <PUBCHEM_BOND_DEF_STEREO_COUNT>
0

> <PUBCHEM_BOND_UDEF_STEREO_COUNT>
0

> <PUBCHEM_ISOTOPIC_ATOM_COUNT>
0

> <PUBCHEM_COMPONENT_COUNT>
1

> <PUBCHEM_CACTVS_TAUTO_COUNT>
5

> <PUBCHEM_COORDINATE_TYPE>
1
5
255

> <PUBCHEM_BONDANNOTATIONS>
6  1  5
7  1  5
10  12  6
9  2  6

$$$$
