 
  -OEChem-10192104002D

 27 28  0     0  0  0  0  0  0999 V2000
    6.3580   -1.1897    0.0000 O   0  0  0  0  0  0  0  0  0  0  0  0
    2.8660   -1.1550    0.0000 O   0  0  0  0  0  0  0  0  0  0  0  0
    4.5981    1.8450    0.0000 O   0  0  0  0  0  0  0  0  0  0  0  0
    6.3465    1.8796    0.0000 O   0  0  0  0  0  0  0  0  0  0  0  0
    2.0000    0.3450    0.0000 O   0  0  0  0  0  0  0  0  0  0  0  0
    5.4641    0.3450    0.0000 C   0  0  0  0  0  0  0  0  0  0  0  0
    5.4641   -0.6550    0.0000 C   0  0  0  0  0  0  0  0  0  0  0  0
    4.5981    0.8450    0.0000 C   0  0  0  0  0  0  0  0  0  0  0  0
    3.7320    0.3450    0.0000 C   0  0  0  0  0  0  0  0  0  0  0  0
    4.5981   -1.1550    0.0000 C   0  0  0  0  0  0  0  0  0  0  0  0
    3.7320   -0.6550    0.0000 C   0  0  0  0  0  0  0  0  0  0  0  0
    6.3580    0.8797    0.0000 C   0  0  0  0  0  0  0  0  0  0  0  0
    7.2641   -0.6758    0.0000 C   0  0  0  0  0  0  0  0  0  0  0  0
    7.2641    0.3658    0.0000 C   0  0  0  0  0  0  0  0  0  0  0  0
    8.1282   -1.1792    0.0000 C   0  0  0  0  0  0  0  0  0  0  0  0
    2.8660    0.8450    0.0000 C   0  0  0  0  0  0  0  0  0  0  0  0
    2.8660   -2.1550    0.0000 C   0  0  0  0  0  0  0  0  0  0  0  0
    4.5981   -1.7750    0.0000 H   0  0  0  0  0  0  0  0  0  0  0  0
    7.7998    0.6779    0.0000 H   0  0  0  0  0  0  0  0  0  0  0  0
    7.8161   -1.7149    0.0000 H   0  0  0  0  0  0  0  0  0  0  0  0
    8.6639   -1.4912    0.0000 H   0  0  0  0  0  0  0  0  0  0  0  0
    8.4403   -0.6434    0.0000 H   0  0  0  0  0  0  0  0  0  0  0  0
    2.8660    1.4650    0.0000 H   0  0  0  0  0  0  0  0  0  0  0  0
    4.0611    2.1550    0.0000 H   0  0  0  0  0  0  0  0  0  0  0  0
    2.2460   -2.1550    0.0000 H   0  0  0  0  0  0  0  0  0  0  0  0
    2.8660   -2.7750    0.0000 H   0  0  0  0  0  0  0  0  0  0  0  0
    3.4860   -2.1550    0.0000 H   0  0  0  0  0  0  0  0  0  0  0  0
  1  7  1  0  0  0  0
  1 13  1  0  0  0  0
  2 11  1  0  0  0  0
  2 17  1  0  0  0  0
  3  8  1  0  0  0  0
  3 24  1  0  0  0  0
  4 12  2  0  0  0  0
  5 16  2  0  0  0  0
  6  7  1  0  0  0  0
  6  8  2  0  0  0  0
  6 12  1  0  0  0  0
  7 10  2  0  0  0  0
  8  9  1  0  0  0  0
  9 11  2  0  0  0  0
  9 16  1  0  0  0  0
 10 11  1  0  0  0  0
 10 18  1  0  0  0  0
 12 14  1  0  0  0  0
 13 14  2  0  0  0  0
 13 15  1  0  0  0  0
 14 19  1  0  0  0  0
 15 20  1  0  0  0  0
 15 21  1  0  0  0  0
 15 22  1  0  0  0  0
 16 23  1  0  0  0  0
 17 25  1  0  0  0  0
 17 26  1  0  0  0  0
 17 27  1  0  0  0  0
M  END
> <PUBCHEM_COMPOUND_CID>
121003424

> <PUBCHEM_COMPOUND_CANONICALIZED>
1

> <PUBCHEM_CACTVS_COMPLEXITY>
362

> <PUBCHEM_CACTVS_HBOND_ACCEPTOR>
5

> <PUBCHEM_CACTVS_HBOND_DONOR>
1

> <PUBCHEM_CACTVS_ROTATABLE_BOND>
2

> <PUBCHEM_CACTVS_SUBSKEYS>
AAADccBwOAAAAAAAAAAAAAAAAAAAAAAAAAAwQAAAAAAAAACBAAAAGgAACAAADASgmAIyBoAABgCIAqhSgAACCAAkIAAAiAEGCMgMJzaGNRqCeWCl4BUIuQeI7uzuIAACCAAIAABAAAQQABAAAAAAAAAAAA==

> <PUBCHEM_IUPAC_OPENEYE_NAME>
5-hydroxy-7-methoxy-2-methyl-4-oxo-chromene-6-carbaldehyde

> <PUBCHEM_IUPAC_CAS_NAME>
5-hydroxy-7-methoxy-2-methyl-4-oxo-1-benzopyran-6-carboxaldehyde

> <PUBCHEM_IUPAC_NAME_MARKUP>
5-hydroxy-7-methoxy-2-methyl-4-oxochromene-6-carbaldehyde

> <PUBCHEM_IUPAC_NAME>
5-hydroxy-7-methoxy-2-methyl-4-oxochromene-6-carbaldehyde

> <PUBCHEM_IUPAC_SYSTEMATIC_NAME>
7-methoxy-2-methyl-5-oxidanyl-4-oxidanylidene-chromene-6-carbaldehyde

> <PUBCHEM_IUPAC_TRADITIONAL_NAME>
5-hydroxy-4-keto-7-methoxy-2-methyl-chromene-6-carbaldehyde

> <PUBCHEM_IUPAC_INCHI>
InChI=1S/C12H10O5/c1-6-3-8(14)11-10(17-6)4-9(16-2)7(5-13)12(11)15/h3-5,15H,1-2H3

> <PUBCHEM_IUPAC_INCHIKEY>
PRJJLJKYHOXABE-UHFFFAOYSA-N

> <PUBCHEM_XLOGP3_AA>
1.5

> <PUBCHEM_EXACT_MASS>
234.05282342

> <PUBCHEM_MOLECULAR_FORMULA>
C12H10O5

> <PUBCHEM_MOLECULAR_WEIGHT>
234.20

> <PUBCHEM_OPENEYE_CAN_SMILES>
CC1=CC(=O)C2=C(C(=C(C=C2O1)OC)C=O)O

> <PUBCHEM_OPENEYE_ISO_SMILES>
CC1=CC(=O)C2=C(C(=C(C=C2O1)OC)C=O)O

> <PUBCHEM_CACTVS_TPSA>
72.8

> <PUBCHEM_MONOISOTOPIC_WEIGHT>
234.05282342

> <PUBCHEM_TOTAL_CHARGE>
0

> <PUBCHEM_HEAVY_ATOM_COUNT>
17

> <PUBCHEM_ATOM_DEF_STEREO_COUNT>
0

> <PUBCHEM_ATOM_UDEF_STEREO_COUNT>
0

> <PUBCHEM_BOND_DEF_STEREO_COUNT>
0

> <PUBCHEM_BOND_UDEF_STEREO_COUNT>
0

> <PUBCHEM_ISOTOPIC_ATOM_COUNT>
0

> <PUBCHEM_COMPONENT_COUNT>
1

> <PUBCHEM_CACTVS_TAUTO_COUNT>
-1

> <PUBCHEM_COORDINATE_TYPE>
1
5
255

> <PUBCHEM_BONDANNOTATIONS>
1  13  8
1  7  8
10  11  8
12  14  8
13  14  8
6  12  8
6  7  8
6  8  8
7  10  8
8  9  8
9  11  8

$$$$
