 
  -OEChem-10192104392D

 84 90  0     1  0  0  0  0  0999 V2000
    8.4288    2.7372    0.0000 O   0  0  0  0  0  0  0  0  0  0  0  0
    4.8429   -3.4739    0.0000 O   0  0  0  0  0  0  0  0  0  0  0  0
   13.0135   -3.4739    0.0000 O   0  0  0  0  0  0  0  0  0  0  0  0
    7.1962    0.3082    0.0000 O   0  0  0  0  0  0  0  0  0  0  0  0
    6.3301   -1.1918    0.0000 O   0  0  0  0  0  0  0  0  0  0  0  0
   11.5263   -1.1918    0.0000 O   0  0  0  0  0  0  0  0  0  0  0  0
    8.0622    3.8082    0.0000 O   0  0  0  0  0  0  0  0  0  0  0  0
    3.7320   -3.6918    0.0000 O   0  0  0  0  0  0  0  0  0  0  0  0
   14.1244   -3.6918    0.0000 O   0  0  0  0  0  0  0  0  0  0  0  0
    9.2702    4.2478    0.0000 O   0  0  0  0  0  0  0  0  0  0  0  0
    3.9554   -4.9580    0.0000 O   0  0  0  0  0  0  0  0  0  0  0  0
   13.9012   -4.9578    0.0000 O   0  0  0  0  0  0  0  0  0  0  0  0
    8.0622   -1.1918    0.0000 N   0  0  0  0  0  0  0  0  0  0  0  0
    9.7942   -1.1918    0.0000 N   0  0  0  0  0  0  0  0  0  0  0  0
    8.9282   -2.6918    0.0000 N   0  0  0  0  0  0  0  0  0  0  0  0
    9.4276    2.7372    0.0000 C   0  0  3  0  0  0  0  0  0  0  0  0
    5.3422   -4.3388    0.0000 C   0  0  3  0  0  0  0  0  0  0  0  0
   12.5142   -4.3388    0.0000 C   0  0  3  0  0  0  0  0  0  0  0  0
    9.7942    1.8082    0.0000 C   0  0  0  0  0  0  0  0  0  0  0  0
    6.3301   -4.1918    0.0000 C   0  0  0  0  0  0  0  0  0  0  0  0
   11.5263   -4.1918    0.0000 C   0  0  0  0  0  0  0  0  0  0  0  0
    8.9282    2.3082    0.0000 C   0  0  0  0  0  0  0  0  0  0  0  0
    5.4641   -3.6918    0.0000 C   0  0  0  0  0  0  0  0  0  0  0  0
   12.3923   -3.6918    0.0000 C   0  0  0  0  0  0  0  0  0  0  0  0
    8.0622    1.8082    0.0000 C   0  0  0  0  0  0  0  0  0  0  0  0
    5.4641   -2.6918    0.0000 C   0  0  0  0  0  0  0  0  0  0  0  0
   12.3923   -2.6918    0.0000 C   0  0  0  0  0  0  0  0  0  0  0  0
    8.9282    0.3082    0.0000 C   0  0  0  0  0  0  0  0  0  0  0  0
    7.1962   -2.6918    0.0000 C   0  0  0  0  0  0  0  0  0  0  0  0
   10.6603   -2.6918    0.0000 C   0  0  0  0  0  0  0  0  0  0  0  0
    9.7942    0.8082    0.0000 C   0  0  0  0  0  0  0  0  0  0  0  0
    7.1962   -3.6918    0.0000 C   0  0  0  0  0  0  0  0  0  0  0  0
   10.6603   -3.6918    0.0000 C   0  0  0  0  0  0  0  0  0  0  0  0
    8.0622    0.8082    0.0000 C   0  0  0  0  0  0  0  0  0  0  0  0
    6.3301   -2.1918    0.0000 C   0  0  0  0  0  0  0  0  0  0  0  0
   11.5263   -2.1918    0.0000 C   0  0  0  0  0  0  0  0  0  0  0  0
    8.9282   -0.6918    0.0000 C   0  0  0  0  0  0  0  0  0  0  0  0
    8.0622   -2.1918    0.0000 C   0  0  0  0  0  0  0  0  0  0  0  0
    9.7942   -2.1918    0.0000 C   0  0  0  0  0  0  0  0  0  0  0  0
   10.3900    3.0089    0.0000 C   0  0  0  0  0  0  0  0  0  0  0  0
    5.5881   -5.3081    0.0000 C   0  0  0  0  0  0  0  0  0  0  0  0
   12.2683   -5.3082    0.0000 C   0  0  0  0  0  0  0  0  0  0  0  0
    8.9282    3.3082    0.0000 C   0  0  0  0  0  0  0  0  0  0  0  0
    4.5981   -4.1918    0.0000 C   0  0  0  0  0  0  0  0  0  0  0  0
   13.2583   -4.1918    0.0000 C   0  0  0  0  0  0  0  0  0  0  0  0
    8.0622    4.8082    0.0000 C   0  0  0  0  0  0  0  0  0  0  0  0
    2.8660   -4.1918    0.0000 C   0  0  0  0  0  0  0  0  0  0  0  0
   14.9904   -4.1918    0.0000 C   0  0  0  0  0  0  0  0  0  0  0  0
    7.1962    5.3082    0.0000 C   0  0  0  0  0  0  0  0  0  0  0  0
    2.0000   -3.6918    0.0000 C   0  0  0  0  0  0  0  0  0  0  0  0
   15.8564   -3.6918    0.0000 C   0  0  0  0  0  0  0  0  0  0  0  0
    9.3425    3.3513    0.0000 H   0  0  0  0  0  0  0  0  0  0  0  0
    4.7679   -4.5723    0.0000 H   0  0  0  0  0  0  0  0  0  0  0  0
   13.0885   -4.5723    0.0000 H   0  0  0  0  0  0  0  0  0  0  0  0
   10.3312    0.4982    0.0000 H   0  0  0  0  0  0  0  0  0  0  0  0
    7.7331   -4.0018    0.0000 H   0  0  0  0  0  0  0  0  0  0  0  0
   10.1233   -4.0018    0.0000 H   0  0  0  0  0  0  0  0  0  0  0  0
   10.5584    2.4123    0.0000 H   0  0  0  0  0  0  0  0  0  0  0  0
   10.9866    3.1774    0.0000 H   0  0  0  0  0  0  0  0  0  0  0  0
   10.2215    3.6056    0.0000 H   0  0  0  0  0  0  0  0  0  0  0  0
    4.9872   -5.4606    0.0000 H   0  0  0  0  0  0  0  0  0  0  0  0
    5.7406   -5.9091    0.0000 H   0  0  0  0  0  0  0  0  0  0  0  0
    6.1891   -5.1557    0.0000 H   0  0  0  0  0  0  0  0  0  0  0  0
   11.6674   -5.1557    0.0000 H   0  0  0  0  0  0  0  0  0  0  0  0
   12.1159   -5.9091    0.0000 H   0  0  0  0  0  0  0  0  0  0  0  0
   12.8693   -5.4606    0.0000 H   0  0  0  0  0  0  0  0  0  0  0  0
    6.6592    0.6182    0.0000 H   0  0  0  0  0  0  0  0  0  0  0  0
    5.7932   -0.8818    0.0000 H   0  0  0  0  0  0  0  0  0  0  0  0
   12.0632   -0.8818    0.0000 H   0  0  0  0  0  0  0  0  0  0  0  0
    8.6728    4.7005    0.0000 H   0  0  0  0  0  0  0  0  0  0  0  0
    8.2742    5.3908    0.0000 H   0  0  0  0  0  0  0  0  0  0  0  0
    2.4675   -4.6668    0.0000 H   0  0  0  0  0  0  0  0  0  0  0  0
    3.2646   -4.6668    0.0000 H   0  0  0  0  0  0  0  0  0  0  0  0
   14.5919   -4.6668    0.0000 H   0  0  0  0  0  0  0  0  0  0  0  0
   15.3889   -4.6668    0.0000 H   0  0  0  0  0  0  0  0  0  0  0  0
    7.5062    5.8451    0.0000 H   0  0  0  0  0  0  0  0  0  0  0  0
    6.6592    5.6182    0.0000 H   0  0  0  0  0  0  0  0  0  0  0  0
    6.8862    4.7712    0.0000 H   0  0  0  0  0  0  0  0  0  0  0  0
    2.3100   -3.1549    0.0000 H   0  0  0  0  0  0  0  0  0  0  0  0
    1.4631   -3.3818    0.0000 H   0  0  0  0  0  0  0  0  0  0  0  0
    1.6900   -4.2288    0.0000 H   0  0  0  0  0  0  0  0  0  0  0  0
   16.1664   -4.2288    0.0000 H   0  0  0  0  0  0  0  0  0  0  0  0
   16.3933   -3.3818    0.0000 H   0  0  0  0  0  0  0  0  0  0  0  0
   15.5464   -3.1549    0.0000 H   0  0  0  0  0  0  0  0  0  0  0  0
  1 16  1  0  0  0  0
  1 25  1  0  0  0  0
  2 17  1  0  0  0  0
  2 26  1  0  0  0  0
  3 18  1  0  0  0  0
  3 27  1  0  0  0  0
  4 34  1  0  0  0  0
  4 67  1  0  0  0  0
  5 35  1  0  0  0  0
  5 68  1  0  0  0  0
  6 36  1  0  0  0  0
  6 69  1  0  0  0  0
  7 43  1  0  0  0  0
  7 46  1  0  0  0  0
  8 44  1  0  0  0  0
  8 47  1  0  0  0  0
  9 45  1  0  0  0  0
  9 48  1  0  0  0  0
 10 43  2  0  0  0  0
 11 44  2  0  0  0  0
 12 45  2  0  0  0  0
 13 37  2  0  0  0  0
 13 38  1  0  0  0  0
 14 37  1  0  0  0  0
 14 39  2  0  0  0  0
 15 38  2  0  0  0  0
 15 39  1  0  0  0  0
 16 19  1  0  0  0  0
 16 40  1  0  0  0  0
 16 52  1  0  0  0  0
 17 20  1  0  0  0  0
 17 41  1  0  0  0  0
 17 53  1  0  0  0  0
 18 21  1  0  0  0  0
 18 42  1  0  0  0  0
 18 54  1  0  0  0  0
 19 22  2  0  0  0  0
 19 31  1  0  0  0  0
 20 23  2  0  0  0  0
 20 32  1  0  0  0  0
 21 24  2  0  0  0  0
 21 33  1  0  0  0  0
 22 25  1  0  0  0  0
 22 43  1  0  0  0  0
 23 26  1  0  0  0  0
 23 44  1  0  0  0  0
 24 27  1  0  0  0  0
 24 45  1  0  0  0  0
 25 34  2  0  0  0  0
 26 35  2  0  0  0  0
 27 36  2  0  0  0  0
 28 31  2  0  0  0  0
 28 34  1  0  0  0  0
 28 37  1  0  0  0  0
 29 32  2  0  0  0  0
 29 35  1  0  0  0  0
 29 38  1  0  0  0  0
 30 33  2  0  0  0  0
 30 36  1  0  0  0  0
 30 39  1  0  0  0  0
 31 55  1  0  0  0  0
 32 56  1  0  0  0  0
 33 57  1  0  0  0  0
 40 58  1  0  0  0  0
 40 59  1  0  0  0  0
 40 60  1  0  0  0  0
 41 61  1  0  0  0  0
 41 62  1  0  0  0  0
 41 63  1  0  0  0  0
 42 64  1  0  0  0  0
 42 65  1  0  0  0  0
 42 66  1  0  0  0  0
 46 49  1  0  0  0  0
 46 70  1  0  0  0  0
 46 71  1  0  0  0  0
 47 50  1  0  0  0  0
 47 72  1  0  0  0  0
 47 73  1  0  0  0  0
 48 51  1  0  0  0  0
 48 74  1  0  0  0  0
 48 75  1  0  0  0  0
 49 76  1  0  0  0  0
 49 77  1  0  0  0  0
 49 78  1  0  0  0  0
 50 79  1  0  0  0  0
 50 80  1  0  0  0  0
 50 81  1  0  0  0  0
 51 82  1  0  0  0  0
 51 83  1  0  0  0  0
 51 84  1  0  0  0  0
M  END
> <PUBCHEM_COMPOUND_CID>
136156273

> <PUBCHEM_COMPOUND_CANONICALIZED>
1

> <PUBCHEM_CACTVS_COMPLEXITY>
1140

> <PUBCHEM_CACTVS_HBOND_ACCEPTOR>
15

> <PUBCHEM_CACTVS_HBOND_DONOR>
3

> <PUBCHEM_CACTVS_ROTATABLE_BOND>
12

> <PUBCHEM_CACTVS_SUBSKEYS>
AAADcfB/PAAAAAAAAAAAAAAAAAAAASJEgAA8YMEABIkAAAAB1AAAHgAACAAADBShmwIzHoYIFgCoAiLyLACCiAkkIKABiCEkjNiNL7aGvRuGeWvv4BOLuQf6+P6O4AADAAAYQADAAAYAADCAAAAAAAAAAA==

> <PUBCHEM_IUPAC_OPENEYE_NAME>
ethyl 3-[4,6-bis(8-ethoxycarbonyl-4-hydroxy-7-methyl-6-oxabicyclo[3.2.1]octa-1(8),2,4-trien-3-yl)-1,3,5-triazin-2-yl]-4-hydroxy-7-methyl-6-oxabicyclo[3.2.1]octa-1(8),2,4-triene-8-carboxylate

> <PUBCHEM_IUPAC_CAS_NAME>
3-[4,6-bis(8-ethoxycarbonyl-4-hydroxy-7-methyl-6-oxabicyclo[3.2.1]octa-1(8),2,4-trien-3-yl)-1,3,5-triazin-2-yl]-4-hydroxy-7-methyl-6-oxabicyclo[3.2.1]octa-1(8),2,4-triene-8-carboxylic acid ethyl ester

> <PUBCHEM_IUPAC_NAME_MARKUP>
ethyl 3-[4,6-bis(8-ethoxycarbonyl-4-hydroxy-7-methyl-6-oxabicyclo[3.2.1]octa-1(8),2,4-trien-3-yl)-1,3,5-triazin-2-yl]-4-hydroxy-7-methyl-6-oxabicyclo[3.2.1]octa-1(8),2,4-triene-8-carboxylate

> <PUBCHEM_IUPAC_NAME>
ethyl 3-[4,6-bis(8-ethoxycarbonyl-4-hydroxy-7-methyl-6-oxabicyclo[3.2.1]octa-1(8),2,4-trien-3-yl)-1,3,5-triazin-2-yl]-4-hydroxy-7-methyl-6-oxabicyclo[3.2.1]octa-1(8),2,4-triene-8-carboxylate

> <PUBCHEM_IUPAC_SYSTEMATIC_NAME>
ethyl 3-[4,6-bis(8-ethoxycarbonyl-7-methyl-4-oxidanyl-6-oxabicyclo[3.2.1]octa-1(8),2,4-trien-3-yl)-1,3,5-triazin-2-yl]-7-methyl-4-oxidanyl-6-oxabicyclo[3.2.1]octa-1(8),2,4-triene-8-carboxylate

> <PUBCHEM_IUPAC_TRADITIONAL_NAME>
3-[4,6-bis(8-carbethoxy-4-hydroxy-7-methyl-6-oxabicyclo[3.2.1]octa-1(8),2,4-trien-3-yl)-s-triazin-2-yl]-4-hydroxy-7-methyl-6-oxabicyclo[3.2.1]octa-1(8),2,4-triene-8-carboxylic acid ethyl ester

> <PUBCHEM_IUPAC_INCHI>
InChI=1S/C36H33N3O12/c1-7-46-34(43)22-16-10-19(25(40)28(22)49-13(16)4)31-37-32(20-11-17-14(5)50-29(26(20)41)23(17)35(44)47-8-2)39-33(38-31)21-12-18-15(6)51-30(27(21)42)24(18)36(45)48-9-3/h10-15,40-42H,7-9H2,1-6H3

> <PUBCHEM_IUPAC_INCHIKEY>
HOBAOLORVYIRMM-UHFFFAOYSA-N

> <PUBCHEM_XLOGP3_AA>
4.4

> <PUBCHEM_EXACT_MASS>
699.20642350

> <PUBCHEM_MOLECULAR_FORMULA>
C36H33N3O12

> <PUBCHEM_MOLECULAR_WEIGHT>
699.7

> <PUBCHEM_OPENEYE_CAN_SMILES>
CCOC(=O)C1=C2C=C(C(=C1OC2C)O)C3=NC(=NC(=N3)C4=CC5=C(C(=C4O)OC5C)C(=O)OCC)C6=CC7=C(C(=C6O)OC7C)C(=O)OCC

> <PUBCHEM_OPENEYE_ISO_SMILES>
CCOC(=O)C1=C2C=C(C(=C1OC2C)O)C3=NC(=NC(=N3)C4=CC5=C(C(=C4O)OC5C)C(=O)OCC)C6=CC7=C(C(=C6O)OC7C)C(=O)OCC

> <PUBCHEM_CACTVS_TPSA>
206

> <PUBCHEM_MONOISOTOPIC_WEIGHT>
699.20642350

> <PUBCHEM_TOTAL_CHARGE>
0

> <PUBCHEM_HEAVY_ATOM_COUNT>
51

> <PUBCHEM_ATOM_DEF_STEREO_COUNT>
0

> <PUBCHEM_ATOM_UDEF_STEREO_COUNT>
3

> <PUBCHEM_BOND_DEF_STEREO_COUNT>
0

> <PUBCHEM_BOND_UDEF_STEREO_COUNT>
0

> <PUBCHEM_ISOTOPIC_ATOM_COUNT>
0

> <PUBCHEM_COMPONENT_COUNT>
1

> <PUBCHEM_CACTVS_TAUTO_COUNT>
-1

> <PUBCHEM_COORDINATE_TYPE>
1
5
255

> <PUBCHEM_BONDANNOTATIONS>
13  37  8
13  38  8
14  37  8
14  39  8
15  38  8
15  39  8
16  40  3
17  41  3
18  42  3
19  22  8
19  31  8
20  23  8
20  32  8
21  24  8
21  33  8
22  25  8
23  26  8
24  27  8
25  34  8
26  35  8
27  36  8
28  31  8
28  34  8
29  32  8
29  35  8
30  33  8
30  36  8

$$$$
