 
  -OEChem-10192103322D

 92 96  0     1  0  0  0  0  0999 V2000
   14.8410    1.5623    0.0000 O   0  0  0  0  0  0  0  0  0  0  0  0
   11.6687    2.5805    0.0000 O   0  0  0  0  0  0  0  0  0  0  0  0
   10.6603   -3.2741    0.0000 O   0  0  0  0  0  0  0  0  0  0  0  0
   12.3923   -3.2741    0.0000 O   0  0  0  0  0  0  0  0  0  0  0  0
   10.6603   -6.2741    0.0000 O   0  0  0  0  0  0  0  0  0  0  0  0
    8.9282   -5.2741    0.0000 O   0  0  0  0  0  0  0  0  0  0  0  0
   12.3923   -5.2741    0.0000 O   0  0  0  0  0  0  0  0  0  0  0  0
   14.1244   -2.2741    0.0000 O   0  0  0  0  0  0  0  0  0  0  0  0
   17.1435    4.4645    0.0000 O   0  0  0  0  0  0  0  0  0  0  0  0
    8.0622   -3.7741    0.0000 O   0  0  0  0  0  0  0  0  0  0  0  0
   15.9680    6.0825    0.0000 O   0  0  0  0  0  0  0  0  0  0  0  0
    7.1962   -2.2741    0.0000 O   0  0  0  0  0  0  0  0  0  0  0  0
    2.0000   -3.2741    0.0000 O   0  0  0  0  0  0  0  0  0  0  0  0
    2.0000   -5.2741    0.0000 O   0  0  0  0  0  0  0  0  0  0  0  0
   13.3629    2.2204    0.0000 C   0  0  1  0  0  0  0  0  0  0  0  0
   13.2583    1.2259    0.0000 C   0  0  2  0  0  0  0  0  0  0  0  0
   14.3410    2.4283    0.0000 C   0  0  1  0  0  0  0  0  0  0  0  0
   14.1719    0.8192    0.0000 C   0  0  0  0  0  0  0  0  0  0  0  0
   12.3923    0.7259    0.0000 C   0  0  0  0  0  0  0  0  0  0  0  0
   12.6197    2.8896    0.0000 C   0  0  0  0  0  0  0  0  0  0  0  0
   14.7477    3.3419    0.0000 C   0  0  0  0  0  0  0  0  0  0  0  0
   12.3923   -0.2741    0.0000 C   0  0  0  0  0  0  0  0  0  0  0  0
   10.6603   -5.2741    0.0000 C   0  0  1  0  0  0  0  0  0  0  0  0
    9.7942   -4.7741    0.0000 C   0  0  1  0  0  0  0  0  0  0  0  0
   15.7423    3.4464    0.0000 C   0  0  0  0  0  0  0  0  0  0  0  0
   11.5263   -4.7741    0.0000 C   0  0  2  0  0  0  0  0  0  0  0  0
   14.1600    4.1509    0.0000 C   0  0  0  0  0  0  0  0  0  0  0  0
    9.7942   -3.7741    0.0000 C   0  0  1  0  0  0  0  0  0  0  0  0
   11.5263   -3.7741    0.0000 C   0  0  1  0  0  0  0  0  0  0  0  0
   13.2583   -0.7741    0.0000 C   0  0  0  0  0  0  0  0  0  0  0  0
   11.5263   -0.7741    0.0000 C   0  0  0  0  0  0  0  0  0  0  0  0
   12.3923   -2.2741    0.0000 C   0  0  0  0  0  0  0  0  0  0  0  0
   13.2583   -1.7741    0.0000 C   0  0  0  0  0  0  0  0  0  0  0  0
   16.1490    4.3600    0.0000 C   0  0  0  0  0  0  0  0  0  0  0  0
   11.5263   -1.7741    0.0000 C   0  0  0  0  0  0  0  0  0  0  0  0
   14.5667    5.0644    0.0000 C   0  0  0  0  0  0  0  0  0  0  0  0
    8.9282   -3.2741    0.0000 C   0  0  0  0  0  0  0  0  0  0  0  0
   15.5612    5.1690    0.0000 C   0  0  0  0  0  0  0  0  0  0  0  0
   14.9904   -1.7741    0.0000 C   0  0  0  0  0  0  0  0  0  0  0  0
   17.5503    5.3780    0.0000 C   0  0  0  0  0  0  0  0  0  0  0  0
    7.1962   -3.2741    0.0000 C   0  0  0  0  0  0  0  0  0  0  0  0
    6.3301   -3.7741    0.0000 C   0  0  0  0  0  0  0  0  0  0  0  0
    5.4641   -3.2741    0.0000 C   0  0  0  0  0  0  0  0  0  0  0  0
    4.5981   -3.7741    0.0000 C   0  0  0  0  0  0  0  0  0  0  0  0
    3.7320   -3.2741    0.0000 C   0  0  0  0  0  0  0  0  0  0  0  0
    4.5981   -4.7741    0.0000 C   0  0  0  0  0  0  0  0  0  0  0  0
    2.8660   -3.7741    0.0000 C   0  0  0  0  0  0  0  0  0  0  0  0
    3.7320   -5.2741    0.0000 C   0  0  0  0  0  0  0  0  0  0  0  0
    2.8660   -4.7741    0.0000 C   0  0  0  0  0  0  0  0  0  0  0  0
    2.0000   -2.2741    0.0000 C   0  0  0  0  0  0  0  0  0  0  0  0
   13.5233    2.8193    0.0000 H   0  0  0  0  0  0  0  0  0  0  0  0
   12.7384    1.5636    0.0000 H   0  0  0  0  0  0  0  0  0  0  0  0
   14.9602    2.4608    0.0000 H   0  0  0  0  0  0  0  0  0  0  0  0
   13.8619    0.2822    0.0000 H   0  0  0  0  0  0  0  0  0  0  0  0
   14.6735    0.4547    0.0000 H   0  0  0  0  0  0  0  0  0  0  0  0
   12.1803    1.3085    0.0000 H   0  0  0  0  0  0  0  0  0  0  0  0
   11.7817    0.6182    0.0000 H   0  0  0  0  0  0  0  0  0  0  0  0
   13.1083    3.2713    0.0000 H   0  0  0  0  0  0  0  0  0  0  0  0
   12.3286    3.4370    0.0000 H   0  0  0  0  0  0  0  0  0  0  0  0
   10.1233   -5.5841    0.0000 H   0  0  0  0  0  0  0  0  0  0  0  0
    9.2573   -4.4641    0.0000 H   0  0  0  0  0  0  0  0  0  0  0  0
   11.5263   -5.3941    0.0000 H   0  0  0  0  0  0  0  0  0  0  0  0
   16.1067    2.9448    0.0000 H   0  0  0  0  0  0  0  0  0  0  0  0
   13.5434    4.0861    0.0000 H   0  0  0  0  0  0  0  0  0  0  0  0
    9.7942   -3.1541    0.0000 H   0  0  0  0  0  0  0  0  0  0  0  0
   11.5263   -3.1541    0.0000 H   0  0  0  0  0  0  0  0  0  0  0  0
   13.7953   -0.4641    0.0000 H   0  0  0  0  0  0  0  0  0  0  0  0
   10.9893   -0.4641    0.0000 H   0  0  0  0  0  0  0  0  0  0  0  0
   11.2079    2.9954    0.0000 H   0  0  0  0  0  0  0  0  0  0  0  0
   10.9893   -2.0841    0.0000 H   0  0  0  0  0  0  0  0  0  0  0  0
    9.3267   -2.7992    0.0000 H   0  0  0  0  0  0  0  0  0  0  0  0
    8.5297   -2.7992    0.0000 H   0  0  0  0  0  0  0  0  0  0  0  0
   14.2023    5.5660    0.0000 H   0  0  0  0  0  0  0  0  0  0  0  0
   11.1972   -6.5841    0.0000 H   0  0  0  0  0  0  0  0  0  0  0  0
    8.9282   -5.8941    0.0000 H   0  0  0  0  0  0  0  0  0  0  0  0
   12.9292   -4.9641    0.0000 H   0  0  0  0  0  0  0  0  0  0  0  0
   15.6035    6.5841    0.0000 H   0  0  0  0  0  0  0  0  0  0  0  0
   15.3004   -2.3110    0.0000 H   0  0  0  0  0  0  0  0  0  0  0  0
   15.5273   -1.4641    0.0000 H   0  0  0  0  0  0  0  0  0  0  0  0
   14.6804   -1.2372    0.0000 H   0  0  0  0  0  0  0  0  0  0  0  0
   18.1167    5.1258    0.0000 H   0  0  0  0  0  0  0  0  0  0  0  0
   17.8024    5.9444    0.0000 H   0  0  0  0  0  0  0  0  0  0  0  0
   16.9839    5.6302    0.0000 H   0  0  0  0  0  0  0  0  0  0  0  0
    6.3301   -4.3941    0.0000 H   0  0  0  0  0  0  0  0  0  0  0  0
    5.4641   -2.6541    0.0000 H   0  0  0  0  0  0  0  0  0  0  0  0
    3.7320   -2.6541    0.0000 H   0  0  0  0  0  0  0  0  0  0  0  0
    5.1350   -5.0841    0.0000 H   0  0  0  0  0  0  0  0  0  0  0  0
    3.7320   -5.8941    0.0000 H   0  0  0  0  0  0  0  0  0  0  0  0
    2.0000   -5.8941    0.0000 H   0  0  0  0  0  0  0  0  0  0  0  0
    2.6200   -2.2741    0.0000 H   0  0  0  0  0  0  0  0  0  0  0  0
    2.0000   -1.6541    0.0000 H   0  0  0  0  0  0  0  0  0  0  0  0
    1.3800   -2.2741    0.0000 H   0  0  0  0  0  0  0  0  0  0  0  0
  1 17  1  0  0  0  0
  1 18  1  0  0  0  0
  2 20  1  0  0  0  0
  2 69  1  0  0  0  0
  3 28  1  0  0  0  0
  3 29  1  0  0  0  0
 29  4  1  1  0  0  0
  4 32  1  0  0  0  0
 23  5  1  1  0  0  0
  5 74  1  0  0  0  0
 24  6  1  6  0  0  0
  6 75  1  0  0  0  0
 26  7  1  6  0  0  0
  7 76  1  0  0  0  0
  8 33  1  0  0  0  0
  8 39  1  0  0  0  0
  9 34  1  0  0  0  0
  9 40  1  0  0  0  0
 10 37  1  0  0  0  0
 10 41  1  0  0  0  0
 11 38  1  0  0  0  0
 11 77  1  0  0  0  0
 12 41  2  0  0  0  0
 13 47  1  0  0  0  0
 13 50  1  0  0  0  0
 14 49  1  0  0  0  0
 14 89  1  0  0  0  0
 15 16  1  0  0  0  0
 15 17  1  0  0  0  0
 15 20  1  6  0  0  0
 15 51  1  0  0  0  0
 16 18  1  0  0  0  0
 16 19  1  6  0  0  0
 16 52  1  0  0  0  0
 17 21  1  1  0  0  0
 17 53  1  0  0  0  0
 18 54  1  0  0  0  0
 18 55  1  0  0  0  0
 19 22  1  0  0  0  0
 19 56  1  0  0  0  0
 19 57  1  0  0  0  0
 20 58  1  0  0  0  0
 20 59  1  0  0  0  0
 21 25  2  0  0  0  0
 21 27  1  0  0  0  0
 22 30  2  0  0  0  0
 22 31  1  0  0  0  0
 23 24  1  0  0  0  0
 23 26  1  0  0  0  0
 23 60  1  0  0  0  0
 24 28  1  0  0  0  0
 24 61  1  0  0  0  0
 25 34  1  0  0  0  0
 25 63  1  0  0  0  0
 26 29  1  0  0  0  0
 26 62  1  0  0  0  0
 27 36  2  0  0  0  0
 27 64  1  0  0  0  0
 28 37  1  1  0  0  0
 28 65  1  0  0  0  0
 29 66  1  0  0  0  0
 30 33  1  0  0  0  0
 30 67  1  0  0  0  0
 31 35  2  0  0  0  0
 31 68  1  0  0  0  0
 32 33  2  0  0  0  0
 32 35  1  0  0  0  0
 34 38  2  0  0  0  0
 35 70  1  0  0  0  0
 36 38  1  0  0  0  0
 36 73  1  0  0  0  0
 37 71  1  0  0  0  0
 37 72  1  0  0  0  0
 39 78  1  0  0  0  0
 39 79  1  0  0  0  0
 39 80  1  0  0  0  0
 40 81  1  0  0  0  0
 40 82  1  0  0  0  0
 40 83  1  0  0  0  0
 41 42  1  0  0  0  0
 42 43  2  0  0  0  0
 42 84  1  0  0  0  0
 43 44  1  0  0  0  0
 43 85  1  0  0  0  0
 44 45  2  0  0  0  0
 44 46  1  0  0  0  0
 45 47  1  0  0  0  0
 45 86  1  0  0  0  0
 46 48  2  0  0  0  0
 46 87  1  0  0  0  0
 47 49  2  0  0  0  0
 48 49  1  0  0  0  0
 48 88  1  0  0  0  0
 50 90  1  0  0  0  0
 50 91  1  0  0  0  0
 50 92  1  0  0  0  0
M  END
> <PUBCHEM_COMPOUND_CID>
71465381

> <PUBCHEM_COMPOUND_CANONICALIZED>
1

> <PUBCHEM_CACTVS_COMPLEXITY>
1080

> <PUBCHEM_CACTVS_HBOND_ACCEPTOR>
14

> <PUBCHEM_CACTVS_HBOND_DONOR>
6

> <PUBCHEM_CACTVS_ROTATABLE_BOND>
14

> <PUBCHEM_CACTVS_SUBSKEYS>
AAADcfB8PAAAAAAAAAAAAAAAAAAAASAAAAA0YMEAAAAAAAABUAAAGgAACAAADRSwmAMyDoAABgCIAiDSCAACCAAgIAAIiAAGiMgdNiKGMRqieCOlwBEPuYfA4PwOoAABAAAAQABAAAIAAACAAAAAAAAAAA==

> <PUBCHEM_IUPAC_OPENEYE_NAME>
[(2R,3S,4S,5R,6S)-3,4,5-trihydroxy-6-[4-[[(3R,4R,5S)-5-(4-hydroxy-3-methoxy-phenyl)-4-(hydroxymethyl)tetrahydrofuran-3-yl]methyl]-2-methoxy-phenoxy]tetrahydropyran-2-yl]methyl (E)-3-(4-hydroxy-3-methoxy-phenyl)prop-2-enoate

> <PUBCHEM_IUPAC_CAS_NAME>
(E)-3-(4-hydroxy-3-methoxyphenyl)-2-propenoic acid [(2R,3S,4S,5R,6S)-3,4,5-trihydroxy-6-[4-[[(3R,4R,5S)-5-(4-hydroxy-3-methoxyphenyl)-4-(hydroxymethyl)-3-oxolanyl]methyl]-2-methoxyphenoxy]-2-oxanyl]methyl ester

> <PUBCHEM_IUPAC_NAME_MARKUP>
[(2<I>R</I>,3<I>S</I>,4<I>S</I>,5<I>R</I>,6<I>S</I>)-3,4,5-trihydroxy-6-[4-[[(3<I>R</I>,4<I>R</I>,5<I>S</I>)-5-(4-hydroxy-3-methoxyphenyl)-4-(hydroxymethyl)oxolan-3-yl]methyl]-2-methoxyphenoxy]oxan-2-yl]methyl (<I>E</I>)-3-(4-hydroxy-3-methoxyphenyl)prop-2-enoate

> <PUBCHEM_IUPAC_NAME>
[(2R,3S,4S,5R,6S)-3,4,5-trihydroxy-6-[4-[[(3R,4R,5S)-5-(4-hydroxy-3-methoxyphenyl)-4-(hydroxymethyl)oxolan-3-yl]methyl]-2-methoxyphenoxy]oxan-2-yl]methyl (E)-3-(4-hydroxy-3-methoxyphenyl)prop-2-enoate

> <PUBCHEM_IUPAC_SYSTEMATIC_NAME>
[(2R,3S,4S,5R,6S)-6-[4-[[(3R,4R,5S)-4-(hydroxymethyl)-5-(3-methoxy-4-oxidanyl-phenyl)oxolan-3-yl]methyl]-2-methoxy-phenoxy]-3,4,5-tris(oxidanyl)oxan-2-yl]methyl (E)-3-(3-methoxy-4-oxidanyl-phenyl)prop-2-enoate

> <PUBCHEM_IUPAC_TRADITIONAL_NAME>
(E)-3-(4-hydroxy-3-methoxy-phenyl)acrylic acid [(2R,3S,4S,5R,6S)-3,4,5-trihydroxy-6-[4-[[(3R,4R,5S)-5-(4-hydroxy-3-methoxy-phenyl)-4-methylol-tetrahydrofuran-3-yl]methyl]-2-methoxy-phenoxy]tetrahydropyran-2-yl]methyl ester

> <PUBCHEM_IUPAC_INCHI>
InChI=1S/C36H42O14/c1-44-27-13-19(4-8-24(27)38)6-11-31(40)47-18-30-32(41)33(42)34(43)36(50-30)49-26-10-5-20(14-29(26)46-3)12-22-17-48-35(23(22)16-37)21-7-9-25(39)28(15-21)45-2/h4-11,13-15,22-23,30,32-39,41-43H,12,16-18H2,1-3H3/b11-6+/t22-,23-,30+,32+,33-,34+,35+,36+/m0/s1

> <PUBCHEM_IUPAC_INCHIKEY>
HCBWZDHWOYYYFX-PNYQTAEKSA-N

> <PUBCHEM_XLOGP3_AA>
2.3

> <PUBCHEM_EXACT_MASS>
698.25745601

> <PUBCHEM_MOLECULAR_FORMULA>
C36H42O14

> <PUBCHEM_MOLECULAR_WEIGHT>
698.7

> <PUBCHEM_OPENEYE_CAN_SMILES>
COC1=C(C=CC(=C1)CC2COC(C2CO)C3=CC(=C(C=C3)O)OC)OC4C(C(C(C(O4)COC(=O)C=CC5=CC(=C(C=C5)O)OC)O)O)O

> <PUBCHEM_OPENEYE_ISO_SMILES>
COC1=C(C=CC(=C1)C[C@H]2CO[C@@H]([C@H]2CO)C3=CC(=C(C=C3)O)OC)O[C@H]4[C@@H]([C@H]([C@@H]([C@H](O4)COC(=O)/C=C/C5=CC(=C(C=C5)O)OC)O)O)O

> <PUBCHEM_CACTVS_TPSA>
203

> <PUBCHEM_MONOISOTOPIC_WEIGHT>
698.25745601

> <PUBCHEM_TOTAL_CHARGE>
0

> <PUBCHEM_HEAVY_ATOM_COUNT>
50

> <PUBCHEM_ATOM_DEF_STEREO_COUNT>
8

> <PUBCHEM_ATOM_UDEF_STEREO_COUNT>
0

> <PUBCHEM_BOND_DEF_STEREO_COUNT>
1

> <PUBCHEM_BOND_UDEF_STEREO_COUNT>
0

> <PUBCHEM_ISOTOPIC_ATOM_COUNT>
0

> <PUBCHEM_COMPONENT_COUNT>
1

> <PUBCHEM_CACTVS_TAUTO_COUNT>
-1

> <PUBCHEM_COORDINATE_TYPE>
1
5
255

> <PUBCHEM_BONDANNOTATIONS>
15  20  6
16  19  6
17  21  5
21  25  8
21  27  8
22  30  8
22  31  8
25  34  8
27  36  8
28  37  5
30  33  8
31  35  8
32  33  8
32  35  8
34  38  8
36  38  8
29  4  5
44  45  8
44  46  8
45  47  8
46  48  8
47  49  8
48  49  8
23  5  5
24  6  6
26  7  6

$$$$
