 
  -OEChem-10192103442D

 66 66  0     1  0  0  0  0  0999 V2000
    9.4651    2.8450    0.0000 O   0  0  0  0  0  0  0  0  0  0  0  0
    7.7331    2.8450    0.0000 O   0  0  0  0  0  0  0  0  0  0  0  0
    2.5369   -1.1550    0.0000 O   0  0  0  0  0  0  0  0  0  0  0  0
    3.4030    0.3450    0.0000 O   0  0  0  0  0  0  0  0  0  0  0  0
   10.3312    1.3450    0.0000 O   0  0  0  0  0  0  0  0  0  0  0  0
    6.8671    1.3450    0.0000 O   0  0  0  0  0  0  0  0  0  0  0  0
    3.4030   -2.6550    0.0000 O   0  0  0  0  0  0  0  0  0  0  0  0
    5.1350    0.3450    0.0000 O   0  0  0  0  0  0  0  0  0  0  0  0
    7.7331   -1.1550    0.0000 C   0  0  3  0  0  0  0  0  0  0  0  0
    8.5991   -1.6550    0.0000 C   0  0  3  0  0  0  0  0  0  0  0  0
    6.8671   -1.6550    0.0000 C   0  0  3  0  0  0  0  0  0  0  0  0
    8.5991   -2.6550    0.0000 C   0  0  0  0  0  0  0  0  0  0  0  0
    6.8671   -2.6550    0.0000 C   0  0  0  0  0  0  0  0  0  0  0  0
    7.7331   -3.1550    0.0000 C   0  0  0  0  0  0  0  0  0  0  0  0
    7.7331   -0.1550    0.0000 C   0  0  0  0  0  0  0  0  0  0  0  0
    9.4651   -1.1550    0.0000 C   0  0  0  0  0  0  0  0  0  0  0  0
    6.0010   -1.1550    0.0000 C   0  0  0  0  0  0  0  0  0  0  0  0
    8.5991    0.3450    0.0000 C   0  0  0  0  0  0  0  0  0  0  0  0
   10.3312   -1.6550    0.0000 C   0  0  0  0  0  0  0  0  0  0  0  0
    5.1350   -1.6550    0.0000 C   0  0  0  0  0  0  0  0  0  0  0  0
    8.5991    1.3450    0.0000 C   0  0  0  0  0  0  0  0  0  0  0  0
   11.1972   -1.1550    0.0000 C   0  0  0  0  0  0  0  0  0  0  0  0
    4.2690   -1.1550    0.0000 C   0  0  0  0  0  0  0  0  0  0  0  0
   12.0632   -1.6550    0.0000 C   0  0  0  0  0  0  0  0  0  0  0  0
    9.4651    1.8450    0.0000 C   0  0  0  0  0  0  0  0  0  0  0  0
    7.7331    1.8450    0.0000 C   0  0  0  0  0  0  0  0  0  0  0  0
    3.4030   -1.6550    0.0000 C   0  0  0  0  0  0  0  0  0  0  0  0
    4.2690   -0.1550    0.0000 C   0  0  0  0  0  0  0  0  0  0  0  0
   12.9292   -1.1550    0.0000 C   0  0  0  0  0  0  0  0  0  0  0  0
   13.7953   -1.6550    0.0000 C   0  0  0  0  0  0  0  0  0  0  0  0
    8.2700   -0.8450    0.0000 H   0  0  0  0  0  0  0  0  0  0  0  0
    9.1360   -1.9650    0.0000 H   0  0  0  0  0  0  0  0  0  0  0  0
    6.3301   -1.9650    0.0000 H   0  0  0  0  0  0  0  0  0  0  0  0
    8.8112   -3.2376    0.0000 H   0  0  0  0  0  0  0  0  0  0  0  0
    9.2097   -2.5473    0.0000 H   0  0  0  0  0  0  0  0  0  0  0  0
    6.2565   -2.5473    0.0000 H   0  0  0  0  0  0  0  0  0  0  0  0
    6.6550   -3.2376    0.0000 H   0  0  0  0  0  0  0  0  0  0  0  0
    7.3346   -3.6300    0.0000 H   0  0  0  0  0  0  0  0  0  0  0  0
    8.1316   -3.6300    0.0000 H   0  0  0  0  0  0  0  0  0  0  0  0
    7.5210    0.4276    0.0000 H   0  0  0  0  0  0  0  0  0  0  0  0
    7.1225   -0.2627    0.0000 H   0  0  0  0  0  0  0  0  0  0  0  0
    9.8637   -0.6801    0.0000 H   0  0  0  0  0  0  0  0  0  0  0  0
    9.0666   -0.6801    0.0000 H   0  0  0  0  0  0  0  0  0  0  0  0
    6.3996   -0.6801    0.0000 H   0  0  0  0  0  0  0  0  0  0  0  0
    5.6025   -0.6801    0.0000 H   0  0  0  0  0  0  0  0  0  0  0  0
    8.8112   -0.2376    0.0000 H   0  0  0  0  0  0  0  0  0  0  0  0
    9.2097    0.4527    0.0000 H   0  0  0  0  0  0  0  0  0  0  0  0
    9.9326   -2.1300    0.0000 H   0  0  0  0  0  0  0  0  0  0  0  0
   10.7297   -2.1300    0.0000 H   0  0  0  0  0  0  0  0  0  0  0  0
    4.7365   -2.1300    0.0000 H   0  0  0  0  0  0  0  0  0  0  0  0
    5.5335   -2.1300    0.0000 H   0  0  0  0  0  0  0  0  0  0  0  0
    8.5991    1.9650    0.0000 H   0  0  0  0  0  0  0  0  0  0  0  0
   11.5957   -0.6801    0.0000 H   0  0  0  0  0  0  0  0  0  0  0  0
   10.7987   -0.6801    0.0000 H   0  0  0  0  0  0  0  0  0  0  0  0
    4.2690   -1.7750    0.0000 H   0  0  0  0  0  0  0  0  0  0  0  0
   11.6647   -2.1300    0.0000 H   0  0  0  0  0  0  0  0  0  0  0  0
   12.4617   -2.1300    0.0000 H   0  0  0  0  0  0  0  0  0  0  0  0
   13.3278   -0.6801    0.0000 H   0  0  0  0  0  0  0  0  0  0  0  0
   12.5307   -0.6801    0.0000 H   0  0  0  0  0  0  0  0  0  0  0  0
   13.4853   -2.1919    0.0000 H   0  0  0  0  0  0  0  0  0  0  0  0
   14.3322   -1.9650    0.0000 H   0  0  0  0  0  0  0  0  0  0  0  0
   14.1053   -1.1181    0.0000 H   0  0  0  0  0  0  0  0  0  0  0  0
   10.0021    3.1550    0.0000 H   0  0  0  0  0  0  0  0  0  0  0  0
    7.1962    3.1550    0.0000 H   0  0  0  0  0  0  0  0  0  0  0  0
    2.0000   -1.4650    0.0000 H   0  0  0  0  0  0  0  0  0  0  0  0
    3.4030    0.9650    0.0000 H   0  0  0  0  0  0  0  0  0  0  0  0
  1 25  1  0  0  0  0
  1 63  1  0  0  0  0
  2 26  1  0  0  0  0
  2 64  1  0  0  0  0
  3 27  1  0  0  0  0
  3 65  1  0  0  0  0
  4 28  1  0  0  0  0
  4 66  1  0  0  0  0
  5 25  2  0  0  0  0
  6 26  2  0  0  0  0
  7 27  2  0  0  0  0
  8 28  2  0  0  0  0
  9 10  1  0  0  0  0
  9 11  1  0  0  0  0
  9 15  1  0  0  0  0
  9 31  1  0  0  0  0
 10 12  1  0  0  0  0
 10 16  1  0  0  0  0
 10 32  1  0  0  0  0
 11 13  1  0  0  0  0
 11 17  1  0  0  0  0
 11 33  1  0  0  0  0
 12 14  1  0  0  0  0
 12 34  1  0  0  0  0
 12 35  1  0  0  0  0
 13 14  1  0  0  0  0
 13 36  1  0  0  0  0
 13 37  1  0  0  0  0
 14 38  1  0  0  0  0
 14 39  1  0  0  0  0
 15 18  1  0  0  0  0
 15 40  1  0  0  0  0
 15 41  1  0  0  0  0
 16 19  1  0  0  0  0
 16 42  1  0  0  0  0
 16 43  1  0  0  0  0
 17 20  1  0  0  0  0
 17 44  1  0  0  0  0
 17 45  1  0  0  0  0
 18 21  1  0  0  0  0
 18 46  1  0  0  0  0
 18 47  1  0  0  0  0
 19 22  1  0  0  0  0
 19 48  1  0  0  0  0
 19 49  1  0  0  0  0
 20 23  1  0  0  0  0
 20 50  1  0  0  0  0
 20 51  1  0  0  0  0
 21 25  1  0  0  0  0
 21 26  1  0  0  0  0
 21 52  1  0  0  0  0
 22 24  1  0  0  0  0
 22 53  1  0  0  0  0
 22 54  1  0  0  0  0
 23 27  1  0  0  0  0
 23 28  1  0  0  0  0
 23 55  1  0  0  0  0
 24 29  1  0  0  0  0
 24 56  1  0  0  0  0
 24 57  1  0  0  0  0
 29 30  1  0  0  0  0
 29 58  1  0  0  0  0
 29 59  1  0  0  0  0
 30 60  1  0  0  0  0
 30 61  1  0  0  0  0
 30 62  1  0  0  0  0
M  END
> <PUBCHEM_COMPOUND_CID>
68417744

> <PUBCHEM_COMPOUND_CANONICALIZED>
1

> <PUBCHEM_CACTVS_COMPLEXITY>
560

> <PUBCHEM_CACTVS_HBOND_ACCEPTOR>
8

> <PUBCHEM_CACTVS_HBOND_DONOR>
4

> <PUBCHEM_CACTVS_ROTATABLE_BOND>
15

> <PUBCHEM_CACTVS_SUBSKEYS>
AAADcfB4PAAAAAAAAAAAAAAAAAAAAAAAAAAwAAAAAAAAAAAAAAAAGgAACAAADQCAgAACCAAAAgAIAACQCAAAAAAAAAAAAAEAAAAAABYIAAAAQAAFIAAAAAGIyPCOgAAAAAAAAAAAAAQAACAAAAAAAAAAAA==

> <PUBCHEM_IUPAC_OPENEYE_NAME>
2-[2-[2-(3,3-dicarboxypropyl)-3-hexyl-cyclohexyl]ethyl]propanedioic acid

> <PUBCHEM_IUPAC_CAS_NAME>
2-[2-[2-(3,3-dicarboxypropyl)-3-hexylcyclohexyl]ethyl]propanedioic acid

> <PUBCHEM_IUPAC_NAME_MARKUP>
2-[2-[2-(3,3-dicarboxypropyl)-3-hexylcyclohexyl]ethyl]propanedioic acid

> <PUBCHEM_IUPAC_NAME>
2-[2-[2-(3,3-dicarboxypropyl)-3-hexylcyclohexyl]ethyl]propanedioic acid

> <PUBCHEM_IUPAC_SYSTEMATIC_NAME>
2-[2-[2-(3-carboxy-4-oxidanyl-4-oxidanylidene-butyl)-3-hexyl-cyclohexyl]ethyl]propanedioic acid

> <PUBCHEM_IUPAC_TRADITIONAL_NAME>
2-[2-[2-(3,3-dicarboxypropyl)-3-hexyl-cyclohexyl]ethyl]malonic acid

> <PUBCHEM_IUPAC_INCHI>
InChI=1S/C22H36O8/c1-2-3-4-5-7-14-8-6-9-15(10-11-17(19(23)24)20(25)26)16(14)12-13-18(21(27)28)22(29)30/h14-18H,2-13H2,1H3,(H,23,24)(H,25,26)(H,27,28)(H,29,30)

> <PUBCHEM_IUPAC_INCHIKEY>
UPZSAJMSLAXIKN-UHFFFAOYSA-N

> <PUBCHEM_XLOGP3_AA>
6

> <PUBCHEM_EXACT_MASS>
428.24101810

> <PUBCHEM_MOLECULAR_FORMULA>
C22H36O8

> <PUBCHEM_MOLECULAR_WEIGHT>
428.5

> <PUBCHEM_OPENEYE_CAN_SMILES>
CCCCCCC1CCCC(C1CCC(C(=O)O)C(=O)O)CCC(C(=O)O)C(=O)O

> <PUBCHEM_OPENEYE_ISO_SMILES>
CCCCCCC1CCCC(C1CCC(C(=O)O)C(=O)O)CCC(C(=O)O)C(=O)O

> <PUBCHEM_CACTVS_TPSA>
149

> <PUBCHEM_MONOISOTOPIC_WEIGHT>
428.24101810

> <PUBCHEM_TOTAL_CHARGE>
0

> <PUBCHEM_HEAVY_ATOM_COUNT>
30

> <PUBCHEM_ATOM_DEF_STEREO_COUNT>
0

> <PUBCHEM_ATOM_UDEF_STEREO_COUNT>
3

> <PUBCHEM_BOND_DEF_STEREO_COUNT>
0

> <PUBCHEM_BOND_UDEF_STEREO_COUNT>
0

> <PUBCHEM_ISOTOPIC_ATOM_COUNT>
0

> <PUBCHEM_COMPONENT_COUNT>
1

> <PUBCHEM_CACTVS_TAUTO_COUNT>
-1

> <PUBCHEM_COORDINATE_TYPE>
1
5
255

> <PUBCHEM_BONDANNOTATIONS>
10  16  3
11  17  3
9  15  3

$$$$
