 
  -OEChem-10192104002D

 26 26  0     0  0  0  0  0  0999 V2000
    2.3244    2.8141    0.0000 O   0  0  0  0  0  0  0  0  0  0  0  0
    3.4810   -2.2413    0.0000 O   0  0  0  0  0  0  0  0  0  0  0  0
    5.0812   -1.5784    0.0000 O   0  0  0  0  0  0  0  0  0  0  0  0
    3.7071   -0.5240    0.0000 C   0  0  0  0  0  0  0  0  0  0  0  0
    2.7071   -0.5240    0.0000 C   0  0  0  0  0  0  0  0  0  0  0  0
    4.4142    0.1831    0.0000 C   0  0  0  0  0  0  0  0  0  0  0  0
    2.0000    0.1831    0.0000 C   0  0  0  0  0  0  0  0  0  0  0  0
    4.4142    1.1831    0.0000 C   0  0  0  0  0  0  0  0  0  0  0  0
    2.0000    1.1831    0.0000 C   0  0  0  0  0  0  0  0  0  0  0  0
    3.7071    1.8902    0.0000 C   0  0  0  0  0  0  0  0  0  0  0  0
    2.7071    1.8902    0.0000 C   0  0  0  0  0  0  0  0  0  0  0  0
    4.0898   -1.4479    0.0000 C   0  0  0  0  0  0  0  0  0  0  0  0
    3.3626   -1.0395    0.0000 H   0  0  0  0  0  0  0  0  0  0  0  0
    2.1702   -0.8340    0.0000 H   0  0  0  0  0  0  0  0  0  0  0  0
    2.8676   -1.1229    0.0000 H   0  0  0  0  0  0  0  0  0  0  0  0
    4.7242   -0.3539    0.0000 H   0  0  0  0  0  0  0  0  0  0  0  0
    5.0131    0.3435    0.0000 H   0  0  0  0  0  0  0  0  0  0  0  0
    1.4011    0.3435    0.0000 H   0  0  0  0  0  0  0  0  0  0  0  0
    1.6900   -0.3539    0.0000 H   0  0  0  0  0  0  0  0  0  0  0  0
    5.0131    1.0226    0.0000 H   0  0  0  0  0  0  0  0  0  0  0  0
    4.7242    1.7200    0.0000 H   0  0  0  0  0  0  0  0  0  0  0  0
    1.6900    1.7200    0.0000 H   0  0  0  0  0  0  0  0  0  0  0  0
    1.4011    1.0226    0.0000 H   0  0  0  0  0  0  0  0  0  0  0  0
    4.2440    2.2002    0.0000 H   0  0  0  0  0  0  0  0  0  0  0  0
    3.5466    2.4891    0.0000 H   0  0  0  0  0  0  0  0  0  0  0  0
    3.7183   -2.8141    0.0000 H   0  0  0  0  0  0  0  0  0  0  0  0
  1 11  2  0  0  0  0
  2 12  1  0  0  0  0
  2 26  1  0  0  0  0
  3 12  2  0  0  0  0
  4  5  1  0  0  0  0
  4  6  1  0  0  0  0
  4 12  1  0  0  0  0
  4 13  1  0  0  0  0
  5  7  1  0  0  0  0
  5 14  1  0  0  0  0
  5 15  1  0  0  0  0
  6  8  1  0  0  0  0
  6 16  1  0  0  0  0
  6 17  1  0  0  0  0
  7  9  1  0  0  0  0
  7 18  1  0  0  0  0
  7 19  1  0  0  0  0
  8 10  1  0  0  0  0
  8 20  1  0  0  0  0
  8 21  1  0  0  0  0
  9 11  1  0  0  0  0
  9 22  1  0  0  0  0
  9 23  1  0  0  0  0
 10 11  1  0  0  0  0
 10 24  1  0  0  0  0
 10 25  1  0  0  0  0
M  END
> <PUBCHEM_COMPOUND_CID>
21472455

> <PUBCHEM_COMPOUND_CANONICALIZED>
1

> <PUBCHEM_CACTVS_COMPLEXITY>
174

> <PUBCHEM_CACTVS_HBOND_ACCEPTOR>
3

> <PUBCHEM_CACTVS_HBOND_DONOR>
1

> <PUBCHEM_CACTVS_ROTATABLE_BOND>
1

> <PUBCHEM_CACTVS_SUBSKEYS>
AAADccBwMAAAAAAAAAAAAAAAAAAAAAAAAAAAAAAAAAAYAAAAAAAAGgAACAAADQSAgAAACAAAAgAIAICQCAAAAAAAAAAAAAEAAAAAABIAAAAAQAAEAAAAAAGIyOCOAAAAAAAAAAAAAAAAAAAAAAAAAAAAAA==

> <PUBCHEM_IUPAC_OPENEYE_NAME>
5-oxocyclooctanecarboxylic acid

> <PUBCHEM_IUPAC_CAS_NAME>
5-oxo-1-cyclooctanecarboxylic acid

> <PUBCHEM_IUPAC_NAME_MARKUP>
5-oxocyclooctane-1-carboxylic acid

> <PUBCHEM_IUPAC_NAME>
5-oxocyclooctane-1-carboxylic acid

> <PUBCHEM_IUPAC_SYSTEMATIC_NAME>
5-oxidanylidenecyclooctane-1-carboxylic acid

> <PUBCHEM_IUPAC_TRADITIONAL_NAME>
5-ketocyclooctanecarboxylic acid

> <PUBCHEM_IUPAC_INCHI>
InChI=1S/C9H14O3/c10-8-5-1-3-7(9(11)12)4-2-6-8/h7H,1-6H2,(H,11,12)

> <PUBCHEM_IUPAC_INCHIKEY>
CCXOTMWEWMFJOK-UHFFFAOYSA-N

> <PUBCHEM_XLOGP3_AA>
0.6

> <PUBCHEM_EXACT_MASS>
170.094294304

> <PUBCHEM_MOLECULAR_FORMULA>
C9H14O3

> <PUBCHEM_MOLECULAR_WEIGHT>
170.21

> <PUBCHEM_OPENEYE_CAN_SMILES>
C1CC(CCCC(=O)C1)C(=O)O

> <PUBCHEM_OPENEYE_ISO_SMILES>
C1CC(CCCC(=O)C1)C(=O)O

> <PUBCHEM_CACTVS_TPSA>
54.4

> <PUBCHEM_MONOISOTOPIC_WEIGHT>
170.094294304

> <PUBCHEM_TOTAL_CHARGE>
0

> <PUBCHEM_HEAVY_ATOM_COUNT>
12

> <PUBCHEM_ATOM_DEF_STEREO_COUNT>
0

> <PUBCHEM_ATOM_UDEF_STEREO_COUNT>
0

> <PUBCHEM_BOND_DEF_STEREO_COUNT>
0

> <PUBCHEM_BOND_UDEF_STEREO_COUNT>
0

> <PUBCHEM_ISOTOPIC_ATOM_COUNT>
0

> <PUBCHEM_COMPONENT_COUNT>
1

> <PUBCHEM_CACTVS_TAUTO_COUNT>
-1

> <PUBCHEM_COORDINATE_TYPE>
1
5
255

$$$$
