 
  -OEChem-10192104092D

 69 73  0     1  0  0  0  0  0999 V2000
    9.4819   -2.2980    0.0000 O   0  0  0  0  0  0  0  0  0  0  0  0
    7.7499   -2.2980    0.0000 O   0  0  0  0  0  0  0  0  0  0  0  0
   10.3480   -0.7980    0.0000 O   0  0  0  0  0  0  0  0  0  0  0  0
    9.4819   -4.2980    0.0000 O   0  0  0  0  0  0  0  0  0  0  0  0
    7.7499   -5.2980    0.0000 O   0  0  0  0  0  0  0  0  0  0  0  0
    6.0178   -4.2980    0.0000 O   0  0  0  0  0  0  0  0  0  0  0  0
    5.1518   -2.7980    0.0000 O   0  0  0  0  0  0  0  0  0  0  0  0
   10.8088    1.8153    0.0000 O   0  0  0  0  0  0  0  0  0  0  0  0
    9.1812    2.4077    0.0000 O   0  0  0  0  0  0  0  0  0  0  0  0
    2.6004    3.9259    0.0000 O   0  0  0  0  0  0  0  0  0  0  0  0
    7.9812    5.1270    0.0000 O   0  0  0  0  0  0  0  0  0  0  0  0
    9.3251    4.0342    0.0000 O   0  0  0  0  0  0  0  0  0  0  0  0
    5.6019    1.2018    0.0000 N   0  0  0  0  0  0  0  0  0  0  0  0
    8.0743    2.4422    0.0000 N   0  0  0  0  0  0  0  0  0  0  0  0
    8.6159   -0.7980    0.0000 C   0  0  3  0  0  0  0  0  0  0  0  0
    8.6159    0.2020    0.0000 C   0  0  3  0  0  0  0  0  0  0  0  0
    8.6159   -2.7980    0.0000 C   0  0  2  0  0  0  0  0  0  0  0  0
    8.6159   -3.7980    0.0000 C   0  0  1  0  0  0  0  0  0  0  0  0
    9.4819   -1.2980    0.0000 C   0  0  2  0  0  0  0  0  0  0  0  0
    7.7499   -4.2980    0.0000 C   0  0  2  0  0  0  0  0  0  0  0  0
    6.8839   -3.7980    0.0000 C   0  0  1  0  0  0  0  0  0  0  0  0
    6.8839   -2.7980    0.0000 C   0  0  1  0  0  0  0  0  0  0  0  0
    7.7499    0.7020    0.0000 C   0  0  0  0  0  0  0  0  0  0  0  0
    9.4819    0.7020    0.0000 C   0  0  0  0  0  0  0  0  0  0  0  0
    7.7499   -1.2980    0.0000 C   0  0  0  0  0  0  0  0  0  0  0  0
    6.0178   -2.2980    0.0000 C   0  0  0  0  0  0  0  0  0  0  0  0
    7.4079    1.6417    0.0000 C   0  0  0  0  0  0  0  0  0  0  0  0
   10.3480    0.2020    0.0000 C   0  0  0  0  0  0  0  0  0  0  0  0
    6.3828    1.8265    0.0000 C   0  0  0  0  0  0  0  0  0  0  0  0
    6.0299    2.7622    0.0000 C   0  0  0  0  0  0  0  0  0  0  0  0
    9.8240    1.6417    0.0000 C   0  0  0  0  0  0  0  0  0  0  0  0
    5.0310    2.7157    0.0000 C   0  0  0  0  0  0  0  0  0  0  0  0
    4.7665    1.7513    0.0000 C   0  0  0  0  0  0  0  0  0  0  0  0
    6.8839   -0.7980    0.0000 C   0  0  0  0  0  0  0  0  0  0  0  0
    6.6777    3.5779    0.0000 C   0  0  0  0  0  0  0  0  0  0  0  0
    7.7068    3.4168    0.0000 C   0  0  0  0  0  0  0  0  0  0  0  0
    4.3103    3.4678    0.0000 C   0  0  0  0  0  0  0  0  0  0  0  0
    3.7630    1.4722    0.0000 C   0  0  0  0  0  0  0  0  0  0  0  0
    3.3006    3.2119    0.0000 C   0  0  0  0  0  0  0  0  0  0  0  0
    3.0251    2.2074    0.0000 C   0  0  0  0  0  0  0  0  0  0  0  0
    8.3377    4.1927    0.0000 C   0  0  0  0  0  0  0  0  0  0  0  0
    8.0790   -0.4880    0.0000 H   0  0  0  0  0  0  0  0  0  0  0  0
    8.6159    0.8220    0.0000 H   0  0  0  0  0  0  0  0  0  0  0  0
    9.1529   -3.1080    0.0000 H   0  0  0  0  0  0  0  0  0  0  0  0
    8.6159   -4.4180    0.0000 H   0  0  0  0  0  0  0  0  0  0  0  0
    8.9450   -1.6080    0.0000 H   0  0  0  0  0  0  0  0  0  0  0  0
    7.2130   -4.6080    0.0000 H   0  0  0  0  0  0  0  0  0  0  0  0
    6.8839   -4.4180    0.0000 H   0  0  0  0  0  0  0  0  0  0  0  0
    6.8839   -2.1780    0.0000 H   0  0  0  0  0  0  0  0  0  0  0  0
    7.1309    0.6659    0.0000 H   0  0  0  0  0  0  0  0  0  0  0  0
    7.6069    0.0987    0.0000 H   0  0  0  0  0  0  0  0  0  0  0  0
    7.7499   -1.9180    0.0000 H   0  0  0  0  0  0  0  0  0  0  0  0
    6.4164   -1.8231    0.0000 H   0  0  0  0  0  0  0  0  0  0  0  0
    5.6193   -1.8231    0.0000 H   0  0  0  0  0  0  0  0  0  0  0  0
   10.8849    0.5120    0.0000 H   0  0  0  0  0  0  0  0  0  0  0  0
   10.0189   -3.9880    0.0000 H   0  0  0  0  0  0  0  0  0  0  0  0
    8.2868   -5.6080    0.0000 H   0  0  0  0  0  0  0  0  0  0  0  0
    6.0178   -4.9180    0.0000 H   0  0  0  0  0  0  0  0  0  0  0  0
    5.6307    0.5824    0.0000 H   0  0  0  0  0  0  0  0  0  0  0  0
    6.8839   -0.1780    0.0000 H   0  0  0  0  0  0  0  0  0  0  0  0
    6.3469   -1.1080    0.0000 H   0  0  0  0  0  0  0  0  0  0  0  0
    6.4522    4.1554    0.0000 H   0  0  0  0  0  0  0  0  0  0  0  0
    4.6149   -2.4880    0.0000 H   0  0  0  0  0  0  0  0  0  0  0  0
    4.4812    4.0638    0.0000 H   0  0  0  0  0  0  0  0  0  0  0  0
    3.6059    0.8724    0.0000 H   0  0  0  0  0  0  0  0  0  0  0  0
   11.2073    1.3404    0.0000 H   0  0  0  0  0  0  0  0  0  0  0  0
    2.4259    2.0481    0.0000 H   0  0  0  0  0  0  0  0  0  0  0  0
    2.0000    3.7712    0.0000 H   0  0  0  0  0  0  0  0  0  0  0  0
    8.3724    5.6080    0.0000 H   0  0  0  0  0  0  0  0  0  0  0  0
 17  1  1  1  0  0  0
 19  1  1  1  0  0  0
  2 17  1  0  0  0  0
  2 22  1  0  0  0  0
  3 19  1  0  0  0  0
  3 28  1  0  0  0  0
 18  4  1  6  0  0  0
  4 56  1  0  0  0  0
 20  5  1  1  0  0  0
  5 57  1  0  0  0  0
 21  6  1  6  0  0  0
  6 58  1  0  0  0  0
  7 26  1  0  0  0  0
  7 63  1  0  0  0  0
  8 31  1  0  0  0  0
  8 66  1  0  0  0  0
  9 31  2  0  0  0  0
 10 39  1  0  0  0  0
 10 68  1  0  0  0  0
 11 41  1  0  0  0  0
 11 69  1  0  0  0  0
 12 41  2  0  0  0  0
 13 29  1  0  0  0  0
 13 33  1  0  0  0  0
 13 59  1  0  0  0  0
 14 27  1  0  0  0  0
 14 36  2  0  0  0  0
 15 16  1  0  0  0  0
 15 19  1  0  0  0  0
 15 25  1  0  0  0  0
 15 42  1  0  0  0  0
 16 23  1  0  0  0  0
 16 24  1  0  0  0  0
 16 43  1  0  0  0  0
 17 18  1  0  0  0  0
 17 44  1  0  0  0  0
 18 20  1  0  0  0  0
 18 45  1  0  0  0  0
 19 46  1  0  0  0  0
 20 21  1  0  0  0  0
 20 47  1  0  0  0  0
 21 22  1  0  0  0  0
 21 48  1  0  0  0  0
 22 26  1  1  0  0  0
 22 49  1  0  0  0  0
 23 27  1  0  0  0  0
 23 50  1  0  0  0  0
 23 51  1  0  0  0  0
 24 28  2  0  0  0  0
 24 31  1  0  0  0  0
 25 34  2  0  0  0  0
 25 52  1  0  0  0  0
 26 53  1  0  0  0  0
 26 54  1  0  0  0  0
 27 29  2  0  0  0  0
 28 55  1  0  0  0  0
 29 30  1  0  0  0  0
 30 32  1  0  0  0  0
 30 35  2  0  0  0  0
 32 33  2  0  0  0  0
 32 37  1  0  0  0  0
 33 38  1  0  0  0  0
 34 60  1  0  0  0  0
 34 61  1  0  0  0  0
 35 36  1  0  0  0  0
 35 62  1  0  0  0  0
 36 41  1  0  0  0  0
 37 39  2  0  0  0  0
 37 64  1  0  0  0  0
 38 40  2  0  0  0  0
 38 65  1  0  0  0  0
 39 40  1  0  0  0  0
 40 67  1  0  0  0  0
M  END
> <PUBCHEM_COMPOUND_CID>
11353637

> <PUBCHEM_COMPOUND_CANONICALIZED>
1

> <PUBCHEM_CACTVS_COMPLEXITY>
1030

> <PUBCHEM_CACTVS_HBOND_ACCEPTOR>
13

> <PUBCHEM_CACTVS_HBOND_DONOR>
8

> <PUBCHEM_CACTVS_ROTATABLE_BOND>
8

> <PUBCHEM_CACTVS_SUBSKEYS>
AAADceB7PAAAAAAAAAAAAAAAAAAAAWAAAAA8SIEAAAAAAFgB/gAAHgAQCAAADRyxngMwzvLJlgCoAyTyTASCiCQnMiAImSG2fNgbdvLClbO2cQhl0BHf2Yf4/f+egEABAAACAAAAgAIAAAQAAAAAAAAAAA==

> <PUBCHEM_IUPAC_OPENEYE_NAME>
1-[[(2S)-5-carboxy-2-[(2S,3R,4S,5S,6R)-3,4,5-trihydroxy-6-(hydroxymethyl)tetrahydropyran-2-yl]oxy-3-vinyl-3,4-dihydro-2H-pyran-4-yl]methyl]-6-hydroxy-9H-pyrido[3,4-b]indole-3-carboxylic acid

> <PUBCHEM_IUPAC_CAS_NAME>
1-[[(2S)-5-carboxy-3-ethenyl-2-[[(2S,3R,4S,5S,6R)-3,4,5-trihydroxy-6-(hydroxymethyl)-2-oxanyl]oxy]-3,4-dihydro-2H-pyran-4-yl]methyl]-6-hydroxy-9H-pyrido[3,4-b]indole-3-carboxylic acid

> <PUBCHEM_IUPAC_NAME_MARKUP>
1-[[(2<I>S</I>)-5-carboxy-3-ethenyl-2-[(2<I>S</I>,3<I>R</I>,4<I>S</I>,5<I>S</I>,6<I>R</I>)-3,4,5-trihydroxy-6-(hydroxymethyl)oxan-2-yl]oxy-3,4-dihydro-2<I>H</I>-pyran-4-yl]methyl]-6-hydroxy-9<I>H</I>-pyrido[3,4-b]indole-3-carboxylic acid

> <PUBCHEM_IUPAC_NAME>
1-[[(2S)-5-carboxy-3-ethenyl-2-[(2S,3R,4S,5S,6R)-3,4,5-trihydroxy-6-(hydroxymethyl)oxan-2-yl]oxy-3,4-dihydro-2H-pyran-4-yl]methyl]-6-hydroxy-9H-pyrido[3,4-b]indole-3-carboxylic acid

> <PUBCHEM_IUPAC_SYSTEMATIC_NAME>
1-[[(2S)-5-carboxy-3-ethenyl-2-[(2S,3R,4S,5S,6R)-6-(hydroxymethyl)-3,4,5-tris(oxidanyl)oxan-2-yl]oxy-3,4-dihydro-2H-pyran-4-yl]methyl]-6-oxidanyl-9H-pyrido[3,4-b]indole-3-carboxylic acid

> <PUBCHEM_IUPAC_TRADITIONAL_NAME>
1-[[(2S)-5-carboxy-2-[(2S,3R,4S,5S,6R)-3,4,5-trihydroxy-6-methylol-tetrahydropyran-2-yl]oxy-3-vinyl-3,4-dihydro-2H-pyran-4-yl]methyl]-6-hydroxy-9H-beta-carboline-3-carboxylic acid

> <PUBCHEM_IUPAC_INCHI>
InChI=1S/C27H28N2O12/c1-2-11-12(6-17-20-14(7-18(28-17)25(37)38)13-5-10(31)3-4-16(13)29-20)15(24(35)36)9-39-26(11)41-27-23(34)22(33)21(32)19(8-30)40-27/h2-5,7,9,11-12,19,21-23,26-27,29-34H,1,6,8H2,(H,35,36)(H,37,38)/t11?,12?,19-,21-,22+,23-,26+,27+/m1/s1

> <PUBCHEM_IUPAC_INCHIKEY>
PUVRFMWUFDZJGS-MXQKSEFPSA-N

> <PUBCHEM_XLOGP3_AA>
0.5

> <PUBCHEM_EXACT_MASS>
572.16422433

> <PUBCHEM_MOLECULAR_FORMULA>
C27H28N2O12

> <PUBCHEM_MOLECULAR_WEIGHT>
572.5

> <PUBCHEM_OPENEYE_CAN_SMILES>
C=CC1C(C(=COC1OC2C(C(C(C(O2)CO)O)O)O)C(=O)O)CC3=C4C(=CC(=N3)C(=O)O)C5=C(N4)C=CC(=C5)O

> <PUBCHEM_OPENEYE_ISO_SMILES>
C=CC1[C@@H](OC=C(C1CC2=C3C(=CC(=N2)C(=O)O)C4=C(N3)C=CC(=C4)O)C(=O)O)O[C@H]5[C@@H]([C@H]([C@@H]([C@H](O5)CO)O)O)O

> <PUBCHEM_CACTVS_TPSA>
232

> <PUBCHEM_MONOISOTOPIC_WEIGHT>
572.16422433

> <PUBCHEM_TOTAL_CHARGE>
0

> <PUBCHEM_HEAVY_ATOM_COUNT>
41

> <PUBCHEM_ATOM_DEF_STEREO_COUNT>
6

> <PUBCHEM_ATOM_UDEF_STEREO_COUNT>
2

> <PUBCHEM_BOND_DEF_STEREO_COUNT>
0

> <PUBCHEM_BOND_UDEF_STEREO_COUNT>
0

> <PUBCHEM_ISOTOPIC_ATOM_COUNT>
0

> <PUBCHEM_COMPONENT_COUNT>
1

> <PUBCHEM_CACTVS_TAUTO_COUNT>
-1

> <PUBCHEM_COORDINATE_TYPE>
1
5
255

> <PUBCHEM_BONDANNOTATIONS>
17  1  5
19  1  5
13  29  8
13  33  8
14  27  8
14  36  8
15  25  3
16  23  3
22  26  5
27  29  8
29  30  8
30  32  8
30  35  8
32  33  8
32  37  8
33  38  8
35  36  8
37  39  8
38  40  8
39  40  8
18  4  6
20  5  5
21  6  6

$$$$
