 
  -OEChem-10192104212D

 73 75  0     1  0  0  0  0  0999 V2000
    7.1962    0.7500    0.0000 O   0  0  0  0  0  0  0  0  0  0  0  0
    7.1962    3.7500    0.0000 O   0  0  0  0  0  0  0  0  0  0  0  0
    5.3839    1.9453    0.0000 O   0  0  0  0  0  0  0  0  0  0  0  0
    5.3839    3.5547    0.0000 O   0  0  0  0  0  0  0  0  0  0  0  0
    5.4641    0.7500    0.0000 O   0  0  0  0  0  0  0  0  0  0  0  0
    8.9282    1.7500    0.0000 O   0  0  0  0  0  0  0  0  0  0  0  0
    7.1962   -1.2500    0.0000 O   0  0  0  0  0  0  0  0  0  0  0  0
    5.4641   -2.2500    0.0000 O   0  0  0  0  0  0  0  0  0  0  0  0
    3.7320   -1.2500    0.0000 O   0  0  0  0  0  0  0  0  0  0  0  0
    3.7320    1.7500    0.0000 O   0  0  0  0  0  0  0  0  0  0  0  0
   10.6603    1.7500    0.0000 O   0  0  0  0  0  0  0  0  0  0  0  0
    6.3301   -2.7500    0.0000 O   0  0  0  0  0  0  0  0  0  0  0  0
    3.7320   -2.2500    0.0000 O   0  0  0  0  0  0  0  0  0  0  0  0
    2.8660    0.2500    0.0000 O   0  0  0  0  0  0  0  0  0  0  0  0
    2.0000    1.7500    0.0000 O   0  0  0  0  0  0  0  0  0  0  0  0
    7.1962    1.7500    0.0000 C   0  0  1  0  0  0  0  0  0  0  0  0
    6.3301    2.2500    0.0000 C   0  0  2  0  0  0  0  0  0  0  0  0
    8.0622    2.2500    0.0000 C   0  0  2  0  0  0  0  0  0  0  0  0
    6.3301    3.2500    0.0000 C   0  0  2  0  0  0  0  0  0  0  0  0
    8.0622    3.2500    0.0000 C   0  0  2  0  0  0  0  0  0  0  0  0
    6.3301    0.2500    0.0000 C   0  0  2  0  0  0  0  0  0  0  0  0
    6.3301   -0.7500    0.0000 C   0  0  1  0  0  0  0  0  0  0  0  0
    5.4641   -1.2500    0.0000 C   0  0  2  0  0  0  0  0  0  0  0  0
    4.5981   -0.7500    0.0000 C   0  0  1  0  0  0  0  0  0  0  0  0
    4.5981    0.2500    0.0000 C   0  0  1  0  0  0  0  0  0  0  0  0
    4.8003    2.7500    0.0000 C   0  0  1  0  0  0  0  0  0  0  0  0
    8.9282    3.7500    0.0000 C   0  0  0  0  0  0  0  0  0  0  0  0
    3.7320    0.7500    0.0000 C   0  0  0  0  0  0  0  0  0  0  0  0
    3.8003    2.7500    0.0000 C   0  0  0  0  0  0  0  0  0  0  0  0
    9.7942    2.2500    0.0000 C   0  0  0  0  0  0  0  0  0  0  0  0
    7.1962   -2.2500    0.0000 C   0  0  0  0  0  0  0  0  0  0  0  0
    4.5981   -2.7500    0.0000 C   0  0  0  0  0  0  0  0  0  0  0  0
    2.8660   -0.7500    0.0000 C   0  0  0  0  0  0  0  0  0  0  0  0
    9.7942    3.2500    0.0000 C   0  0  0  0  0  0  0  0  0  0  0  0
    8.0622   -2.7500    0.0000 C   0  0  0  0  0  0  0  0  0  0  0  0
    4.5981   -3.7500    0.0000 C   0  0  0  0  0  0  0  0  0  0  0  0
    2.8660    2.2500    0.0000 C   0  0  0  0  0  0  0  0  0  0  0  0
    2.0000   -1.2500    0.0000 C   0  0  0  0  0  0  0  0  0  0  0  0
    2.8660    3.2500    0.0000 C   0  0  0  0  0  0  0  0  0  0  0  0
    6.6592    1.4400    0.0000 H   0  0  0  0  0  0  0  0  0  0  0  0
    6.2402    1.4048    0.0000 H   0  0  0  0  0  0  0  0  0  0  0  0
    8.0622    1.6300    0.0000 H   0  0  0  0  0  0  0  0  0  0  0  0
    6.2402    4.0952    0.0000 H   0  0  0  0  0  0  0  0  0  0  0  0
    8.0622    3.8700    0.0000 H   0  0  0  0  0  0  0  0  0  0  0  0
    6.3301    0.8700    0.0000 H   0  0  0  0  0  0  0  0  0  0  0  0
    6.3301   -1.3700    0.0000 H   0  0  0  0  0  0  0  0  0  0  0  0
    4.9272   -1.5600    0.0000 H   0  0  0  0  0  0  0  0  0  0  0  0
    4.5981   -1.3700    0.0000 H   0  0  0  0  0  0  0  0  0  0  0  0
    4.5981    0.8700    0.0000 H   0  0  0  0  0  0  0  0  0  0  0  0
    4.5186    2.1977    0.0000 H   0  0  0  0  0  0  0  0  0  0  0  0
    9.2382    3.2131    0.0000 H   0  0  0  0  0  0  0  0  0  0  0  0
    9.4651    4.0600    0.0000 H   0  0  0  0  0  0  0  0  0  0  0  0
    8.6182    4.2869    0.0000 H   0  0  0  0  0  0  0  0  0  0  0  0
    3.1215    0.8577    0.0000 H   0  0  0  0  0  0  0  0  0  0  0  0
    3.5200    0.1674    0.0000 H   0  0  0  0  0  0  0  0  0  0  0  0
    3.8003    3.3700    0.0000 H   0  0  0  0  0  0  0  0  0  0  0  0
    3.1803    2.7500    0.0000 H   0  0  0  0  0  0  0  0  0  0  0  0
    3.8003    2.1300    0.0000 H   0  0  0  0  0  0  0  0  0  0  0  0
   10.4142    3.2500    0.0000 H   0  0  0  0  0  0  0  0  0  0  0  0
    9.7942    3.8700    0.0000 H   0  0  0  0  0  0  0  0  0  0  0  0
    9.1742    3.2500    0.0000 H   0  0  0  0  0  0  0  0  0  0  0  0
    7.7522   -3.2869    0.0000 H   0  0  0  0  0  0  0  0  0  0  0  0
    8.5991   -3.0600    0.0000 H   0  0  0  0  0  0  0  0  0  0  0  0
    8.3722   -2.2131    0.0000 H   0  0  0  0  0  0  0  0  0  0  0  0
    3.9781   -3.7500    0.0000 H   0  0  0  0  0  0  0  0  0  0  0  0
    4.5981   -4.3700    0.0000 H   0  0  0  0  0  0  0  0  0  0  0  0
    5.2181   -3.7500    0.0000 H   0  0  0  0  0  0  0  0  0  0  0  0
    1.6900   -0.7131    0.0000 H   0  0  0  0  0  0  0  0  0  0  0  0
    1.4631   -1.5600    0.0000 H   0  0  0  0  0  0  0  0  0  0  0  0
    2.3100   -1.7869    0.0000 H   0  0  0  0  0  0  0  0  0  0  0  0
    3.4860    3.2500    0.0000 H   0  0  0  0  0  0  0  0  0  0  0  0
    2.8660    3.8700    0.0000 H   0  0  0  0  0  0  0  0  0  0  0  0
    2.2460    3.2500    0.0000 H   0  0  0  0  0  0  0  0  0  0  0  0
 16  1  1  1  0  0  0
 21  1  1  1  0  0  0
  2 19  1  0  0  0  0
  2 20  1  0  0  0  0
  3 17  1  0  0  0  0
  3 26  1  0  0  0  0
  4 19  1  0  0  0  0
  4 26  1  0  0  0  0
  5 21  1  0  0  0  0
  5 25  1  0  0  0  0
 18  6  1  6  0  0  0
  6 30  1  0  0  0  0
 22  7  1  6  0  0  0
  7 31  1  0  0  0  0
 23  8  1  1  0  0  0
  8 32  1  0  0  0  0
 24  9  1  6  0  0  0
  9 33  1  0  0  0  0
 10 28  1  0  0  0  0
 10 37  1  0  0  0  0
 11 30  2  0  0  0  0
 12 31  2  0  0  0  0
 13 32  2  0  0  0  0
 14 33  2  0  0  0  0
 15 37  2  0  0  0  0
 16 17  1  0  0  0  0
 16 18  1  0  0  0  0
 16 40  1  0  0  0  0
 17 19  1  0  0  0  0
 17 41  1  6  0  0  0
 18 20  1  0  0  0  0
 18 42  1  0  0  0  0
 19 43  1  6  0  0  0
 20 27  1  1  0  0  0
 20 44  1  0  0  0  0
 21 22  1  0  0  0  0
 21 45  1  0  0  0  0
 22 23  1  0  0  0  0
 22 46  1  0  0  0  0
 23 24  1  0  0  0  0
 23 47  1  0  0  0  0
 24 25  1  0  0  0  0
 24 48  1  0  0  0  0
 25 28  1  1  0  0  0
 25 49  1  0  0  0  0
 26 29  1  6  0  0  0
 26 50  1  0  0  0  0
 27 51  1  0  0  0  0
 27 52  1  0  0  0  0
 27 53  1  0  0  0  0
 28 54  1  0  0  0  0
 28 55  1  0  0  0  0
 29 56  1  0  0  0  0
 29 57  1  0  0  0  0
 29 58  1  0  0  0  0
 30 34  1  0  0  0  0
 31 35  1  0  0  0  0
 32 36  1  0  0  0  0
 33 38  1  0  0  0  0
 34 59  1  0  0  0  0
 34 60  1  0  0  0  0
 34 61  1  0  0  0  0
 35 62  1  0  0  0  0
 35 63  1  0  0  0  0
 35 64  1  0  0  0  0
 36 65  1  0  0  0  0
 36 66  1  0  0  0  0
 36 67  1  0  0  0  0
 37 39  1  0  0  0  0
 38 68  1  0  0  0  0
 38 69  1  0  0  0  0
 38 70  1  0  0  0  0
 39 71  1  0  0  0  0
 39 72  1  0  0  0  0
 39 73  1  0  0  0  0
M  END
> <PUBCHEM_COMPOUND_CID>
11766906

> <PUBCHEM_COMPOUND_CANONICALIZED>
1

> <PUBCHEM_CACTVS_COMPLEXITY>
937

> <PUBCHEM_CACTVS_HBOND_ACCEPTOR>
15

> <PUBCHEM_CACTVS_HBOND_DONOR>
0

> <PUBCHEM_CACTVS_ROTATABLE_BOND>
13

> <PUBCHEM_CACTVS_SUBSKEYS>
AAADcfB4PAAAAAAAAAAAAAAAAAAAASAAAAAkSAAAAAAAAEgAAAAAGgAAAAAACBSwgAMCCAAABAAIAACQCAAAAAAAAAAAAAAAAAARAAIAAAAiAAAFAAAGAAHAYAwAAAAAAAAAAAAAAAAAAAAAAAAAAAAAAA==

> <PUBCHEM_IUPAC_OPENEYE_NAME>
[(2R,3R,4S,5R,6S)-6-[[(2S,3aR,5S,6S,7R,7aR)-6-acetoxy-2,5-dimethyl-5,6,7,7a-tetrahydro-3aH-[1,3]dioxolo[4,5-b]pyran-7-yl]oxy]-3,4,5-triacetoxy-tetrahydropyran-2-yl]methyl acetate

> <PUBCHEM_IUPAC_CAS_NAME>
acetic acid [(2R,3R,4S,5R,6S)-6-[[(2S,3aR,5S,6S,7R,7aR)-6-acetyloxy-2,5-dimethyl-5,6,7,7a-tetrahydro-3aH-[1,3]dioxolo[4,5-b]pyran-7-yl]oxy]-3,4,5-triacetyloxy-2-oxanyl]methyl ester

> <PUBCHEM_IUPAC_NAME_MARKUP>
[(2<I>R</I>,3<I>R</I>,4<I>S</I>,5<I>R</I>,6<I>S</I>)-6-[[(2<I>S</I>,3<I>a</I><I>R</I>,5<I>S</I>,6<I>S</I>,7<I>R</I>,7<I>a</I><I>R</I>)-6-acetyloxy-2,5-dimethyl-5,6,7,7<I>a</I>-tetrahydro-3<I>a</I><I>H</I>-[1,3]dioxolo[4,5-b]pyran-7-yl]oxy]-3,4,5-triacetyloxyoxan-2-yl]methyl acetate

> <PUBCHEM_IUPAC_NAME>
[(2R,3R,4S,5R,6S)-6-[[(2S,3aR,5S,6S,7R,7aR)-6-acetyloxy-2,5-dimethyl-5,6,7,7a-tetrahydro-3aH-[1,3]dioxolo[4,5-b]pyran-7-yl]oxy]-3,4,5-triacetyloxyoxan-2-yl]methyl acetate

> <PUBCHEM_IUPAC_SYSTEMATIC_NAME>
[(2R,3R,4S,5R,6S)-6-[[(2S,3aR,5S,6S,7R,7aR)-6-acetyloxy-2,5-dimethyl-5,6,7,7a-tetrahydro-3aH-[1,3]dioxolo[4,5-b]pyran-7-yl]oxy]-3,4,5-triacetyloxy-oxan-2-yl]methyl ethanoate

> <PUBCHEM_IUPAC_TRADITIONAL_NAME>
acetic acid [(2R,3R,4S,5R,6S)-6-[[(2S,3aR,5S,6S,7R,7aR)-6-acetoxy-2,5-dimethyl-5,6,7,7a-tetrahydro-3aH-[1,3]dioxolo[4,5-b]pyran-7-yl]oxy]-3,4,5-triacetoxy-tetrahydropyran-2-yl]methyl ester

> <PUBCHEM_IUPAC_INCHI>
InChI=1S/C24H34O15/c1-9-17(32-11(3)26)19(22-23(31-9)37-15(7)36-22)39-24-21(35-14(6)29)20(34-13(5)28)18(33-12(4)27)16(38-24)8-30-10(2)25/h9,15-24H,8H2,1-7H3/t9-,15-,16+,17-,18+,19+,20-,21+,22+,23+,24-/m0/s1

> <PUBCHEM_IUPAC_INCHIKEY>
FWLBXORPJWYXFO-KEMJKKKXSA-N

> <PUBCHEM_XLOGP3_AA>
0

> <PUBCHEM_EXACT_MASS>
562.18977037

> <PUBCHEM_MOLECULAR_FORMULA>
C24H34O15

> <PUBCHEM_MOLECULAR_WEIGHT>
562.5

> <PUBCHEM_OPENEYE_CAN_SMILES>
CC1C(C(C2C(O1)OC(O2)C)OC3C(C(C(C(O3)COC(=O)C)OC(=O)C)OC(=O)C)OC(=O)C)OC(=O)C

> <PUBCHEM_OPENEYE_ISO_SMILES>
C[C@H]1[C@@H]([C@H]([C@@H]2[C@H](O1)O[C@H](O2)C)O[C@H]3[C@@H]([C@H]([C@@H]([C@H](O3)COC(=O)C)OC(=O)C)OC(=O)C)OC(=O)C)OC(=O)C

> <PUBCHEM_CACTVS_TPSA>
178

> <PUBCHEM_MONOISOTOPIC_WEIGHT>
562.18977037

> <PUBCHEM_TOTAL_CHARGE>
0

> <PUBCHEM_HEAVY_ATOM_COUNT>
39

> <PUBCHEM_ATOM_DEF_STEREO_COUNT>
11

> <PUBCHEM_ATOM_UDEF_STEREO_COUNT>
0

> <PUBCHEM_BOND_DEF_STEREO_COUNT>
0

> <PUBCHEM_BOND_UDEF_STEREO_COUNT>
0

> <PUBCHEM_ISOTOPIC_ATOM_COUNT>
0

> <PUBCHEM_COMPONENT_COUNT>
1

> <PUBCHEM_CACTVS_TAUTO_COUNT>
-1

> <PUBCHEM_COORDINATE_TYPE>
1
5
255

> <PUBCHEM_BONDANNOTATIONS>
16  1  5
21  1  5
17  41  6
19  43  6
20  27  5
25  28  5
26  29  6
18  6  6
22  7  6
23  8  5
24  9  6

$$$$
