 
  -OEChem-10192104222D

 74 75  0     1  0  0  0  0  0999 V2000
   16.3933   -0.5000    0.0000 O   0  0  0  0  0  0  0  0  0  0  0  0
   14.6613   -0.5000    0.0000 O   0  0  0  0  0  0  0  0  0  0  0  0
   15.5273    2.0000    0.0000 O   0  0  0  0  0  0  0  0  0  0  0  0
   18.1254    0.5000    0.0000 O   0  0  0  0  0  0  0  0  0  0  0  0
   16.3933   -2.5000    0.0000 O   0  0  0  0  0  0  0  0  0  0  0  0
   14.6613   -3.5000    0.0000 O   0  0  0  0  0  0  0  0  0  0  0  0
   12.9292   -2.5000    0.0000 O   0  0  0  0  0  0  0  0  0  0  0  0
   18.1254    2.5000    0.0000 O   0  0  0  0  0  0  0  0  0  0  0  0
   16.3933    3.5000    0.0000 O   0  0  0  0  0  0  0  0  0  0  0  0
   12.0632   -1.0000    0.0000 O   0  0  0  0  0  0  0  0  0  0  0  0
   13.7953    1.0000    0.0000 O   0  0  0  0  0  0  0  0  0  0  0  0
   11.1972    0.5000    0.0000 O   0  0  0  0  0  0  0  0  0  0  0  0
    2.5369   -0.5000    0.0000 O   0  0  0  0  0  0  0  0  0  0  0  0
    3.4030   -2.0000    0.0000 O   0  0  0  0  0  0  0  0  0  0  0  0
   16.3933    0.5000    0.0000 C   0  0  1  0  0  0  0  0  0  0  0  0
   15.5273   -1.0000    0.0000 C   0  0  2  0  0  0  0  0  0  0  0  0
   17.2594    1.0000    0.0000 C   0  0  1  0  0  0  0  0  0  0  0  0
   15.5273   -2.0000    0.0000 C   0  0  1  0  0  0  0  0  0  0  0  0
   14.6613   -2.5000    0.0000 C   0  0  2  0  0  0  0  0  0  0  0  0
   15.5273    1.0000    0.0000 C   0  0  1  0  0  0  0  0  0  0  0  0
   13.7953   -2.0000    0.0000 C   0  0  1  0  0  0  0  0  0  0  0  0
   13.7953   -1.0000    0.0000 C   0  0  1  0  0  0  0  0  0  0  0  0
   17.2594    2.0000    0.0000 C   0  0  2  0  0  0  0  0  0  0  0  0
   16.3933    2.5000    0.0000 C   0  0  1  0  0  0  0  0  0  0  0  0
   14.6613    0.5000    0.0000 C   0  0  0  0  0  0  0  0  0  0  0  0
   12.9292   -0.5000    0.0000 C   0  0  0  0  0  0  0  0  0  0  0  0
   11.1972   -0.5000    0.0000 C   0  0  0  0  0  0  0  0  0  0  0  0
   10.3312   -1.0000    0.0000 C   0  0  0  0  0  0  0  0  0  0  0  0
    9.4651   -0.5000    0.0000 C   0  0  0  0  0  0  0  0  0  0  0  0
    8.5991   -1.0000    0.0000 C   0  0  0  0  0  0  0  0  0  0  0  0
    7.7331   -0.5000    0.0000 C   0  0  0  0  0  0  0  0  0  0  0  0
    6.8671   -1.0000    0.0000 C   0  0  0  0  0  0  0  0  0  0  0  0
    6.0010   -0.5000    0.0000 C   0  0  0  0  0  0  0  0  0  0  0  0
    5.1350   -1.0000    0.0000 C   0  0  0  0  0  0  0  0  0  0  0  0
    4.2690   -0.5000    0.0000 C   0  0  0  0  0  0  0  0  0  0  0  0
    3.4030   -1.0000    0.0000 C   0  0  0  0  0  0  0  0  0  0  0  0
   16.9303    0.1900    0.0000 H   0  0  0  0  0  0  0  0  0  0  0  0
   15.5273   -0.3800    0.0000 H   0  0  0  0  0  0  0  0  0  0  0  0
   17.2594    0.3800    0.0000 H   0  0  0  0  0  0  0  0  0  0  0  0
   15.5273   -2.6200    0.0000 H   0  0  0  0  0  0  0  0  0  0  0  0
   15.1982   -2.8100    0.0000 H   0  0  0  0  0  0  0  0  0  0  0  0
   14.9904    1.3100    0.0000 H   0  0  0  0  0  0  0  0  0  0  0  0
   13.7953   -2.6200    0.0000 H   0  0  0  0  0  0  0  0  0  0  0  0
   13.7953   -0.3800    0.0000 H   0  0  0  0  0  0  0  0  0  0  0  0
   17.7963    1.6900    0.0000 H   0  0  0  0  0  0  0  0  0  0  0  0
   16.9303    2.8100    0.0000 H   0  0  0  0  0  0  0  0  0  0  0  0
   14.2628    0.0251    0.0000 H   0  0  0  0  0  0  0  0  0  0  0  0
   15.0598    0.0251    0.0000 H   0  0  0  0  0  0  0  0  0  0  0  0
   13.3278   -0.0251    0.0000 H   0  0  0  0  0  0  0  0  0  0  0  0
   12.5307   -0.0251    0.0000 H   0  0  0  0  0  0  0  0  0  0  0  0
   18.6623    0.8100    0.0000 H   0  0  0  0  0  0  0  0  0  0  0  0
   16.3933   -3.1200    0.0000 H   0  0  0  0  0  0  0  0  0  0  0  0
   14.1244   -3.8100    0.0000 H   0  0  0  0  0  0  0  0  0  0  0  0
   12.9292   -3.1200    0.0000 H   0  0  0  0  0  0  0  0  0  0  0  0
   18.1254    3.1200    0.0000 H   0  0  0  0  0  0  0  0  0  0  0  0
   15.8564    3.8100    0.0000 H   0  0  0  0  0  0  0  0  0  0  0  0
   13.7953    1.6200    0.0000 H   0  0  0  0  0  0  0  0  0  0  0  0
    9.9326   -1.4750    0.0000 H   0  0  0  0  0  0  0  0  0  0  0  0
   10.7297   -1.4750    0.0000 H   0  0  0  0  0  0  0  0  0  0  0  0
    9.8637   -0.0251    0.0000 H   0  0  0  0  0  0  0  0  0  0  0  0
    9.0666   -0.0251    0.0000 H   0  0  0  0  0  0  0  0  0  0  0  0
    8.2006   -1.4750    0.0000 H   0  0  0  0  0  0  0  0  0  0  0  0
    8.9976   -1.4750    0.0000 H   0  0  0  0  0  0  0  0  0  0  0  0
    8.1316   -0.0251    0.0000 H   0  0  0  0  0  0  0  0  0  0  0  0
    7.3346   -0.0251    0.0000 H   0  0  0  0  0  0  0  0  0  0  0  0
    6.4685   -1.4750    0.0000 H   0  0  0  0  0  0  0  0  0  0  0  0
    7.2656   -1.4750    0.0000 H   0  0  0  0  0  0  0  0  0  0  0  0
    6.3996   -0.0251    0.0000 H   0  0  0  0  0  0  0  0  0  0  0  0
    5.6025   -0.0251    0.0000 H   0  0  0  0  0  0  0  0  0  0  0  0
    4.7365   -1.4750    0.0000 H   0  0  0  0  0  0  0  0  0  0  0  0
    5.5335   -1.4750    0.0000 H   0  0  0  0  0  0  0  0  0  0  0  0
    4.6675   -0.0251    0.0000 H   0  0  0  0  0  0  0  0  0  0  0  0
    3.8705   -0.0251    0.0000 H   0  0  0  0  0  0  0  0  0  0  0  0
    2.0000   -0.8100    0.0000 H   0  0  0  0  0  0  0  0  0  0  0  0
 15  1  1  6  0  0  0
 16  1  1  1  0  0  0
  2 16  1  0  0  0  0
  2 22  1  0  0  0  0
  3 20  1  0  0  0  0
  3 24  1  0  0  0  0
 17  4  1  1  0  0  0
  4 51  1  0  0  0  0
 18  5  1  6  0  0  0
  5 52  1  0  0  0  0
 19  6  1  1  0  0  0
  6 53  1  0  0  0  0
 21  7  1  6  0  0  0
  7 54  1  0  0  0  0
 23  8  1  6  0  0  0
  8 55  1  0  0  0  0
 24  9  1  1  0  0  0
  9 56  1  0  0  0  0
 10 26  1  0  0  0  0
 10 27  1  0  0  0  0
 11 25  1  0  0  0  0
 11 57  1  0  0  0  0
 12 27  2  0  0  0  0
 13 36  1  0  0  0  0
 13 74  1  0  0  0  0
 14 36  2  0  0  0  0
 15 17  1  0  0  0  0
 15 20  1  0  0  0  0
 15 37  1  0  0  0  0
 16 18  1  0  0  0  0
 16 38  1  0  0  0  0
 17 23  1  0  0  0  0
 17 39  1  0  0  0  0
 18 19  1  0  0  0  0
 18 40  1  0  0  0  0
 19 21  1  0  0  0  0
 19 41  1  0  0  0  0
 20 25  1  1  0  0  0
 20 42  1  0  0  0  0
 21 22  1  0  0  0  0
 21 43  1  0  0  0  0
 22 26  1  1  0  0  0
 22 44  1  0  0  0  0
 23 24  1  0  0  0  0
 23 45  1  0  0  0  0
 24 46  1  0  0  0  0
 25 47  1  0  0  0  0
 25 48  1  0  0  0  0
 26 49  1  0  0  0  0
 26 50  1  0  0  0  0
 27 28  1  0  0  0  0
 28 29  1  0  0  0  0
 28 58  1  0  0  0  0
 28 59  1  0  0  0  0
 29 30  1  0  0  0  0
 29 60  1  0  0  0  0
 29 61  1  0  0  0  0
 30 31  1  0  0  0  0
 30 62  1  0  0  0  0
 30 63  1  0  0  0  0
 31 32  1  0  0  0  0
 31 64  1  0  0  0  0
 31 65  1  0  0  0  0
 32 33  1  0  0  0  0
 32 66  1  0  0  0  0
 32 67  1  0  0  0  0
 33 34  1  0  0  0  0
 33 68  1  0  0  0  0
 33 69  1  0  0  0  0
 34 35  1  0  0  0  0
 34 70  1  0  0  0  0
 34 71  1  0  0  0  0
 35 36  1  0  0  0  0
 35 72  1  0  0  0  0
 35 73  1  0  0  0  0
M  END
> <PUBCHEM_COMPOUND_CID>
69904429

> <PUBCHEM_COMPOUND_CANONICALIZED>
1

> <PUBCHEM_CACTVS_COMPLEXITY>
677

> <PUBCHEM_CACTVS_HBOND_ACCEPTOR>
14

> <PUBCHEM_CACTVS_HBOND_DONOR>
8

> <PUBCHEM_CACTVS_ROTATABLE_BOND>
15

> <PUBCHEM_CACTVS_SUBSKEYS>
AAADcfB4PAAAAAAAAAAAAAAAAAAAAAAAAAAkSAAAAAAAAAAAAAAAGgAACAAACBSwgAMACAAABgAIAACQCAAAAAAAAAAAAAEAAAAREBIAAAAiQAAFAAAHAAHI6KyAAAAAAAAAAAAAAAAAAAAAAAAAAAAAAA==

> <PUBCHEM_IUPAC_OPENEYE_NAME>
10-oxo-10-[[(2R,3S,4S,5R,6S)-3,4,5-trihydroxy-6-[(2R,3S,4R,5R,6R)-4,5,6-trihydroxy-2-(hydroxymethyl)tetrahydropyran-3-yl]oxy-tetrahydropyran-2-yl]methoxy]decanoic acid

> <PUBCHEM_IUPAC_CAS_NAME>
10-oxo-10-[[(2R,3S,4S,5R,6S)-3,4,5-trihydroxy-6-[[(2R,3S,4R,5R,6R)-4,5,6-trihydroxy-2-(hydroxymethyl)-3-oxanyl]oxy]-2-oxanyl]methoxy]decanoic acid

> <PUBCHEM_IUPAC_NAME_MARKUP>
10-oxo-10-[[(2<I>R</I>,3<I>S</I>,4<I>S</I>,5<I>R</I>,6<I>S</I>)-3,4,5-trihydroxy-6-[(2<I>R</I>,3<I>S</I>,4<I>R</I>,5<I>R</I>,6<I>R</I>)-4,5,6-trihydroxy-2-(hydroxymethyl)oxan-3-yl]oxyoxan-2-yl]methoxy]decanoic acid

> <PUBCHEM_IUPAC_NAME>
10-oxo-10-[[(2R,3S,4S,5R,6S)-3,4,5-trihydroxy-6-[(2R,3S,4R,5R,6R)-4,5,6-trihydroxy-2-(hydroxymethyl)oxan-3-yl]oxyoxan-2-yl]methoxy]decanoic acid

> <PUBCHEM_IUPAC_SYSTEMATIC_NAME>
10-[[(2R,3S,4S,5R,6S)-6-[(2R,3S,4R,5R,6R)-2-(hydroxymethyl)-4,5,6-tris(oxidanyl)oxan-3-yl]oxy-3,4,5-tris(oxidanyl)oxan-2-yl]methoxy]-10-oxidanylidene-decanoic acid

> <PUBCHEM_IUPAC_TRADITIONAL_NAME>
10-keto-10-[[(2R,3S,4S,5R,6S)-3,4,5-trihydroxy-6-[(2R,3S,4R,5R,6R)-4,5,6-trihydroxy-2-methylol-tetrahydropyran-3-yl]oxy-tetrahydropyran-2-yl]methoxy]capric acid

> <PUBCHEM_IUPAC_INCHI>
InChI=1S/C22H38O14/c23-9-11-20(17(29)18(30)21(32)34-11)36-22-19(31)16(28)15(27)12(35-22)10-33-14(26)8-6-4-2-1-3-5-7-13(24)25/h11-12,15-23,27-32H,1-10H2,(H,24,25)/t11-,12-,15-,16+,17-,18-,19-,20-,21-,22+/m1/s1

> <PUBCHEM_IUPAC_INCHIKEY>
WYIKVENRMYRMOS-KGGQWWQZSA-N

> <PUBCHEM_XLOGP3_AA>
-2.4

> <PUBCHEM_EXACT_MASS>
526.22615588

> <PUBCHEM_MOLECULAR_FORMULA>
C22H38O14

> <PUBCHEM_MOLECULAR_WEIGHT>
526.5

> <PUBCHEM_OPENEYE_CAN_SMILES>
C(CCCCC(=O)OCC1C(C(C(C(O1)OC2C(OC(C(C2O)O)O)CO)O)O)O)CCCC(=O)O

> <PUBCHEM_OPENEYE_ISO_SMILES>
C(CCCCC(=O)OC[C@@H]1[C@H]([C@@H]([C@H]([C@@H](O1)O[C@@H]2[C@H](O[C@H]([C@@H]([C@H]2O)O)O)CO)O)O)O)CCCC(=O)O

> <PUBCHEM_CACTVS_TPSA>
233

> <PUBCHEM_MONOISOTOPIC_WEIGHT>
526.22615588

> <PUBCHEM_TOTAL_CHARGE>
0

> <PUBCHEM_HEAVY_ATOM_COUNT>
36

> <PUBCHEM_ATOM_DEF_STEREO_COUNT>
10

> <PUBCHEM_ATOM_UDEF_STEREO_COUNT>
0

> <PUBCHEM_BOND_DEF_STEREO_COUNT>
0

> <PUBCHEM_BOND_UDEF_STEREO_COUNT>
0

> <PUBCHEM_ISOTOPIC_ATOM_COUNT>
0

> <PUBCHEM_COMPONENT_COUNT>
1

> <PUBCHEM_CACTVS_TAUTO_COUNT>
-1

> <PUBCHEM_COORDINATE_TYPE>
1
5
255

> <PUBCHEM_BONDANNOTATIONS>
15  1  6
16  1  5
20  25  5
22  26  5
17  4  5
18  5  6
19  6  5
21  7  6
23  8  6
24  9  5

$$$$
