 
  -OEChem-10192103462D

 71 74  0     1  0  0  0  0  0999 V2000
    9.3158    1.5623    0.0000 O   0  0  0  0  0  0  0  0  0  0  0  0
    6.1434    2.5805    0.0000 O   0  0  0  0  0  0  0  0  0  0  0  0
    5.1350   -3.2741    0.0000 O   0  0  0  0  0  0  0  0  0  0  0  0
    6.8671   -3.2741    0.0000 O   0  0  0  0  0  0  0  0  0  0  0  0
    5.1350   -6.2741    0.0000 O   0  0  0  0  0  0  0  0  0  0  0  0
    3.4030   -5.2741    0.0000 O   0  0  0  0  0  0  0  0  0  0  0  0
    6.8671   -5.2741    0.0000 O   0  0  0  0  0  0  0  0  0  0  0  0
    8.5991   -2.2741    0.0000 O   0  0  0  0  0  0  0  0  0  0  0  0
    2.5369   -3.7741    0.0000 O   0  0  0  0  0  0  0  0  0  0  0  0
   11.6183    4.4645    0.0000 O   0  0  0  0  0  0  0  0  0  0  0  0
   10.4427    6.0825    0.0000 O   0  0  0  0  0  0  0  0  0  0  0  0
    7.8376    2.2204    0.0000 C   0  0  1  0  0  0  0  0  0  0  0  0
    7.7331    1.2259    0.0000 C   0  0  2  0  0  0  0  0  0  0  0  0
    8.8158    2.4283    0.0000 C   0  0  1  0  0  0  0  0  0  0  0  0
    8.6466    0.8192    0.0000 C   0  0  0  0  0  0  0  0  0  0  0  0
    6.8671    0.7259    0.0000 C   0  0  0  0  0  0  0  0  0  0  0  0
    7.0945    2.8896    0.0000 C   0  0  0  0  0  0  0  0  0  0  0  0
    9.2225    3.3419    0.0000 C   0  0  0  0  0  0  0  0  0  0  0  0
    6.8671   -0.2741    0.0000 C   0  0  0  0  0  0  0  0  0  0  0  0
    5.1350   -5.2741    0.0000 C   0  0  1  0  0  0  0  0  0  0  0  0
    4.2690   -4.7741    0.0000 C   0  0  1  0  0  0  0  0  0  0  0  0
    6.0010   -4.7741    0.0000 C   0  0  2  0  0  0  0  0  0  0  0  0
    4.2690   -3.7741    0.0000 C   0  0  1  0  0  0  0  0  0  0  0  0
    6.0010   -3.7741    0.0000 C   0  0  1  0  0  0  0  0  0  0  0  0
   10.2170    3.4464    0.0000 C   0  0  0  0  0  0  0  0  0  0  0  0
    8.6347    4.1509    0.0000 C   0  0  0  0  0  0  0  0  0  0  0  0
    7.7331   -0.7741    0.0000 C   0  0  0  0  0  0  0  0  0  0  0  0
    6.0010   -0.7741    0.0000 C   0  0  0  0  0  0  0  0  0  0  0  0
    6.8671   -2.2741    0.0000 C   0  0  0  0  0  0  0  0  0  0  0  0
    3.4030   -3.2741    0.0000 C   0  0  0  0  0  0  0  0  0  0  0  0
    7.7331   -1.7741    0.0000 C   0  0  0  0  0  0  0  0  0  0  0  0
    6.0010   -1.7741    0.0000 C   0  0  0  0  0  0  0  0  0  0  0  0
   10.6238    4.3600    0.0000 C   0  0  0  0  0  0  0  0  0  0  0  0
    9.0414    5.0644    0.0000 C   0  0  0  0  0  0  0  0  0  0  0  0
   10.0360    5.1690    0.0000 C   0  0  0  0  0  0  0  0  0  0  0  0
    9.4651   -1.7741    0.0000 C   0  0  0  0  0  0  0  0  0  0  0  0
   12.0250    5.3780    0.0000 C   0  0  0  0  0  0  0  0  0  0  0  0
    7.2588    1.9982    0.0000 H   0  0  0  0  0  0  0  0  0  0  0  0
    7.2131    1.5636    0.0000 H   0  0  0  0  0  0  0  0  0  0  0  0
    9.4349    2.4608    0.0000 H   0  0  0  0  0  0  0  0  0  0  0  0
    8.3366    0.2822    0.0000 H   0  0  0  0  0  0  0  0  0  0  0  0
    9.1482    0.4547    0.0000 H   0  0  0  0  0  0  0  0  0  0  0  0
    6.6550    1.3085    0.0000 H   0  0  0  0  0  0  0  0  0  0  0  0
    6.2565    0.6182    0.0000 H   0  0  0  0  0  0  0  0  0  0  0  0
    7.5830    3.2713    0.0000 H   0  0  0  0  0  0  0  0  0  0  0  0
    6.8034    3.4370    0.0000 H   0  0  0  0  0  0  0  0  0  0  0  0
    4.5981   -5.5841    0.0000 H   0  0  0  0  0  0  0  0  0  0  0  0
    4.2690   -5.3941    0.0000 H   0  0  0  0  0  0  0  0  0  0  0  0
    6.0010   -5.3941    0.0000 H   0  0  0  0  0  0  0  0  0  0  0  0
    4.2690   -3.1541    0.0000 H   0  0  0  0  0  0  0  0  0  0  0  0
    6.0010   -3.1541    0.0000 H   0  0  0  0  0  0  0  0  0  0  0  0
   10.5814    2.9448    0.0000 H   0  0  0  0  0  0  0  0  0  0  0  0
    8.0181    4.0861    0.0000 H   0  0  0  0  0  0  0  0  0  0  0  0
    8.2700   -0.4641    0.0000 H   0  0  0  0  0  0  0  0  0  0  0  0
    5.4641   -0.4641    0.0000 H   0  0  0  0  0  0  0  0  0  0  0  0
    5.6827    2.9954    0.0000 H   0  0  0  0  0  0  0  0  0  0  0  0
    3.8015   -2.7992    0.0000 H   0  0  0  0  0  0  0  0  0  0  0  0
    3.0044   -2.7992    0.0000 H   0  0  0  0  0  0  0  0  0  0  0  0
    5.4641   -2.0841    0.0000 H   0  0  0  0  0  0  0  0  0  0  0  0
    8.6770    5.5660    0.0000 H   0  0  0  0  0  0  0  0  0  0  0  0
    5.6720   -6.5841    0.0000 H   0  0  0  0  0  0  0  0  0  0  0  0
    3.4030   -5.8941    0.0000 H   0  0  0  0  0  0  0  0  0  0  0  0
    7.4040   -4.9641    0.0000 H   0  0  0  0  0  0  0  0  0  0  0  0
    2.0000   -3.4641    0.0000 H   0  0  0  0  0  0  0  0  0  0  0  0
   10.0783    6.5841    0.0000 H   0  0  0  0  0  0  0  0  0  0  0  0
    9.7751   -2.3110    0.0000 H   0  0  0  0  0  0  0  0  0  0  0  0
   10.0021   -1.4641    0.0000 H   0  0  0  0  0  0  0  0  0  0  0  0
    9.1551   -1.2372    0.0000 H   0  0  0  0  0  0  0  0  0  0  0  0
   12.5914    5.1258    0.0000 H   0  0  0  0  0  0  0  0  0  0  0  0
   12.2772    5.9444    0.0000 H   0  0  0  0  0  0  0  0  0  0  0  0
   11.4586    5.6302    0.0000 H   0  0  0  0  0  0  0  0  0  0  0  0
  1 14  1  0  0  0  0
  1 15  1  0  0  0  0
  2 17  1  0  0  0  0
  2 56  1  0  0  0  0
  3 23  1  0  0  0  0
  3 24  1  0  0  0  0
 24  4  1  1  0  0  0
  4 29  1  0  0  0  0
 20  5  1  1  0  0  0
  5 61  1  0  0  0  0
 21  6  1  6  0  0  0
  6 62  1  0  0  0  0
 22  7  1  6  0  0  0
  7 63  1  0  0  0  0
  8 31  1  0  0  0  0
  8 36  1  0  0  0  0
  9 30  1  0  0  0  0
  9 64  1  0  0  0  0
 10 33  1  0  0  0  0
 10 37  1  0  0  0  0
 11 35  1  0  0  0  0
 11 65  1  0  0  0  0
 12 13  1  0  0  0  0
 12 14  1  0  0  0  0
 12 17  1  6  0  0  0
 12 38  1  0  0  0  0
 13 15  1  0  0  0  0
 13 16  1  6  0  0  0
 13 39  1  0  0  0  0
 14 18  1  1  0  0  0
 14 40  1  0  0  0  0
 15 41  1  0  0  0  0
 15 42  1  0  0  0  0
 16 19  1  0  0  0  0
 16 43  1  0  0  0  0
 16 44  1  0  0  0  0
 17 45  1  0  0  0  0
 17 46  1  0  0  0  0
 18 25  2  0  0  0  0
 18 26  1  0  0  0  0
 19 27  2  0  0  0  0
 19 28  1  0  0  0  0
 20 21  1  0  0  0  0
 20 22  1  0  0  0  0
 20 47  1  0  0  0  0
 21 23  1  0  0  0  0
 21 48  1  0  0  0  0
 22 24  1  0  0  0  0
 22 49  1  0  0  0  0
 23 30  1  1  0  0  0
 23 50  1  0  0  0  0
 24 51  1  0  0  0  0
 25 33  1  0  0  0  0
 25 52  1  0  0  0  0
 26 34  2  0  0  0  0
 26 53  1  0  0  0  0
 27 31  1  0  0  0  0
 27 54  1  0  0  0  0
 28 32  2  0  0  0  0
 28 55  1  0  0  0  0
 29 31  2  0  0  0  0
 29 32  1  0  0  0  0
 30 57  1  0  0  0  0
 30 58  1  0  0  0  0
 32 59  1  0  0  0  0
 33 35  2  0  0  0  0
 34 35  1  0  0  0  0
 34 60  1  0  0  0  0
 36 66  1  0  0  0  0
 36 67  1  0  0  0  0
 36 68  1  0  0  0  0
 37 69  1  0  0  0  0
 37 70  1  0  0  0  0
 37 71  1  0  0  0  0
M  END
> <PUBCHEM_COMPOUND_CID>
11972394

> <PUBCHEM_COMPOUND_CANONICALIZED>
1

> <PUBCHEM_CACTVS_COMPLEXITY>
697

> <PUBCHEM_CACTVS_HBOND_ACCEPTOR>
11

> <PUBCHEM_CACTVS_HBOND_DONOR>
6

> <PUBCHEM_CACTVS_ROTATABLE_BOND>
9

> <PUBCHEM_CACTVS_SUBSKEYS>
AAADcfB4PAAAAAAAAAAAAAAAAAAAASAAAAA0YIAAAAAAAAABQAAAGgAACAAADRSwmAMyDoAABgCAAiBCAAACCAAgIAAIiAAGiIgdNiKGMRqieCOlwBEPuAfA4PwOoAABAAAAQABAAAIAAACAAAAAAAAAAA==

> <PUBCHEM_IUPAC_OPENEYE_NAME>
(2S,3R,4S,5S,6R)-2-[4-[[(3R,4R,5S)-5-(4-hydroxy-3-methoxy-phenyl)-4-(hydroxymethyl)tetrahydrofuran-3-yl]methyl]-2-methoxy-phenoxy]-6-(hydroxymethyl)tetrahydropyran-3,4,5-triol

> <PUBCHEM_IUPAC_CAS_NAME>
(2S,3R,4S,5S,6R)-2-[4-[[(3R,4R,5S)-5-(4-hydroxy-3-methoxyphenyl)-4-(hydroxymethyl)-3-oxolanyl]methyl]-2-methoxyphenoxy]-6-(hydroxymethyl)oxane-3,4,5-triol

> <PUBCHEM_IUPAC_NAME_MARKUP>
(2<I>S</I>,3<I>R</I>,4<I>S</I>,5<I>S</I>,6<I>R</I>)-2-[4-[[(3<I>R</I>,4<I>R</I>,5<I>S</I>)-5-(4-hydroxy-3-methoxyphenyl)-4-(hydroxymethyl)oxolan-3-yl]methyl]-2-methoxyphenoxy]-6-(hydroxymethyl)oxane-3,4,5-triol

> <PUBCHEM_IUPAC_NAME>
(2S,3R,4S,5S,6R)-2-[4-[[(3R,4R,5S)-5-(4-hydroxy-3-methoxyphenyl)-4-(hydroxymethyl)oxolan-3-yl]methyl]-2-methoxyphenoxy]-6-(hydroxymethyl)oxane-3,4,5-triol

> <PUBCHEM_IUPAC_SYSTEMATIC_NAME>
(2R,3S,4S,5R,6S)-2-(hydroxymethyl)-6-[4-[[(3R,4R,5S)-4-(hydroxymethyl)-5-(3-methoxy-4-oxidanyl-phenyl)oxolan-3-yl]methyl]-2-methoxy-phenoxy]oxane-3,4,5-triol

> <PUBCHEM_IUPAC_TRADITIONAL_NAME>
(2S,3R,4S,5S,6R)-2-[4-[[(3R,4R,5S)-5-(4-hydroxy-3-methoxy-phenyl)-4-methylol-tetrahydrofuran-3-yl]methyl]-2-methoxy-phenoxy]-6-methylol-tetrahydropyran-3,4,5-triol

> <PUBCHEM_IUPAC_INCHI>
InChI=1S/C26H34O11/c1-33-19-9-14(4-5-17(19)29)25-16(10-27)15(12-35-25)7-13-3-6-18(20(8-13)34-2)36-26-24(32)23(31)22(30)21(11-28)37-26/h3-6,8-9,15-16,21-32H,7,10-12H2,1-2H3/t15-,16-,21+,22+,23-,24+,25+,26+/m0/s1

> <PUBCHEM_IUPAC_INCHIKEY>
GAYKAIAESJROGN-SAOYRWCPSA-N

> <PUBCHEM_XLOGP3_AA>
0.6

> <PUBCHEM_EXACT_MASS>
522.21011190

> <PUBCHEM_MOLECULAR_FORMULA>
C26H34O11

> <PUBCHEM_MOLECULAR_WEIGHT>
522.5

> <PUBCHEM_OPENEYE_CAN_SMILES>
COC1=C(C=CC(=C1)CC2COC(C2CO)C3=CC(=C(C=C3)O)OC)OC4C(C(C(C(O4)CO)O)O)O

> <PUBCHEM_OPENEYE_ISO_SMILES>
COC1=C(C=CC(=C1)C[C@H]2CO[C@@H]([C@H]2CO)C3=CC(=C(C=C3)O)OC)O[C@H]4[C@@H]([C@H]([C@@H]([C@H](O4)CO)O)O)O

> <PUBCHEM_CACTVS_TPSA>
168

> <PUBCHEM_MONOISOTOPIC_WEIGHT>
522.21011190

> <PUBCHEM_TOTAL_CHARGE>
0

> <PUBCHEM_HEAVY_ATOM_COUNT>
37

> <PUBCHEM_ATOM_DEF_STEREO_COUNT>
8

> <PUBCHEM_ATOM_UDEF_STEREO_COUNT>
0

> <PUBCHEM_BOND_DEF_STEREO_COUNT>
0

> <PUBCHEM_BOND_UDEF_STEREO_COUNT>
0

> <PUBCHEM_ISOTOPIC_ATOM_COUNT>
0

> <PUBCHEM_COMPONENT_COUNT>
1

> <PUBCHEM_CACTVS_TAUTO_COUNT>
3

> <PUBCHEM_COORDINATE_TYPE>
1
5
255

> <PUBCHEM_BONDANNOTATIONS>
12  17  6
13  16  6
14  18  5
18  25  8
18  26  8
19  27  8
19  28  8
23  30  5
25  33  8
26  34  8
27  31  8
28  32  8
29  31  8
29  32  8
33  35  8
34  35  8
24  4  5
20  5  5
21  6  6
22  7  6

$$$$
