 
  -OEChem-10192103272D

 73 72  0     1  0  0  0  0  0999 V2000
    8.0622   -1.2500    0.0000 O   0  0  0  0  0  0  0  0  0  0  0  0
    4.5981   -1.2500    0.0000 O   0  0  0  0  0  0  0  0  0  0  0  0
    8.9282   -1.7500    0.0000 O   0  0  0  0  0  0  0  0  0  0  0  0
    4.5981   -0.2500    0.0000 O   0  0  0  0  0  0  0  0  0  0  0  0
   11.5263   -1.2500    0.0000 O   0  0  0  0  0  0  0  0  0  0  0  0
    6.3301    2.7500    0.0000 O   0  0  0  0  0  0  0  0  0  0  0  0
   11.5263   -4.2500    0.0000 O   0  0  0  0  0  0  0  0  0  0  0  0
    7.1962   -5.7500    0.0000 O   0  0  0  0  0  0  0  0  0  0  0  0
    5.4641    3.2500    0.0000 O   0  0  0  0  0  0  0  0  0  0  0  0
    6.3301   -4.2500    0.0000 O   0  0  0  0  0  0  0  0  0  0  0  0
   14.1244   -4.7500    0.0000 O   0  0  0  0  0  0  0  0  0  0  0  0
   14.9904   -3.2500    0.0000 O   0  0  0  0  0  0  0  0  0  0  0  0
   14.1244   -1.7500    0.0000 O   0  0  0  0  0  0  0  0  0  0  0  0
    2.8660    5.7500    0.0000 O   0  0  0  0  0  0  0  0  0  0  0  0
    2.0000    4.2500    0.0000 O   0  0  0  0  0  0  0  0  0  0  0  0
    7.1962   -2.7500    0.0000 N   0  0  0  0  0  0  0  0  0  0  0  0
    6.3301   -0.2500    0.0000 N   0  0  0  0  0  0  0  0  0  0  0  0
    9.7942   -3.2500    0.0000 N   0  0  0  0  0  0  0  0  0  0  0  0
    4.5981    1.7500    0.0000 N   0  0  0  0  0  0  0  0  0  0  0  0
   12.3923   -2.7500    0.0000 N   0  0  0  0  0  0  0  0  0  0  0  0
    2.8660    2.7500    0.0000 N   0  0  0  0  0  0  0  0  0  0  0  0
    8.0622   -3.2500    0.0000 C   0  0  1  0  0  0  0  0  0  0  0  0
    6.3301   -1.2500    0.0000 C   0  0  2  0  0  0  0  0  0  0  0  0
   10.6603   -2.7500    0.0000 C   0  0  1  0  0  0  0  0  0  0  0  0
    5.4641    1.2500    0.0000 C   0  0  2  0  0  0  0  0  0  0  0  0
    8.0622   -4.2500    0.0000 C   0  0  0  0  0  0  0  0  0  0  0  0
    7.1962   -1.7500    0.0000 C   0  0  0  0  0  0  0  0  0  0  0  0
    8.9282   -2.7500    0.0000 C   0  0  0  0  0  0  0  0  0  0  0  0
    5.4641    0.2500    0.0000 C   0  0  0  0  0  0  0  0  0  0  0  0
    5.4641   -1.7500    0.0000 C   0  0  0  0  0  0  0  0  0  0  0  0
   10.6603   -1.7500    0.0000 C   0  0  0  0  0  0  0  0  0  0  0  0
   11.5263   -3.2500    0.0000 C   0  0  0  0  0  0  0  0  0  0  0  0
    6.3301    1.7500    0.0000 C   0  0  0  0  0  0  0  0  0  0  0  0
    3.7320    3.2500    0.0000 C   0  0  2  0  0  0  0  0  0  0  0  0
    4.5981    2.7500    0.0000 C   0  0  0  0  0  0  0  0  0  0  0  0
   13.2583   -3.2500    0.0000 C   0  0  1  0  0  0  0  0  0  0  0  0
    7.1962   -4.7500    0.0000 C   0  0  0  0  0  0  0  0  0  0  0  0
    3.7320    4.2500    0.0000 C   0  0  0  0  0  0  0  0  0  0  0  0
   13.2583   -4.2500    0.0000 C   0  0  0  0  0  0  0  0  0  0  0  0
   14.1244   -2.7500    0.0000 C   0  0  0  0  0  0  0  0  0  0  0  0
    2.8660    4.7500    0.0000 C   0  0  0  0  0  0  0  0  0  0  0  0
    8.0622   -2.6300    0.0000 H   0  0  0  0  0  0  0  0  0  0  0  0
    6.8671   -0.9400    0.0000 H   0  0  0  0  0  0  0  0  0  0  0  0
   10.6603   -3.3700    0.0000 H   0  0  0  0  0  0  0  0  0  0  0  0
    6.6592   -3.0600    0.0000 H   0  0  0  0  0  0  0  0  0  0  0  0
    5.4641    1.8700    0.0000 H   0  0  0  0  0  0  0  0  0  0  0  0
    8.2742   -4.8326    0.0000 H   0  0  0  0  0  0  0  0  0  0  0  0
    8.6728   -4.1423    0.0000 H   0  0  0  0  0  0  0  0  0  0  0  0
    6.8671    0.0600    0.0000 H   0  0  0  0  0  0  0  0  0  0  0  0
    9.7942   -3.8700    0.0000 H   0  0  0  0  0  0  0  0  0  0  0  0
    5.0656   -2.2250    0.0000 H   0  0  0  0  0  0  0  0  0  0  0  0
    5.8626   -2.2250    0.0000 H   0  0  0  0  0  0  0  0  0  0  0  0
   10.4482   -1.1674    0.0000 H   0  0  0  0  0  0  0  0  0  0  0  0
   10.0497   -1.8577    0.0000 H   0  0  0  0  0  0  0  0  0  0  0  0
    4.0611    1.4400    0.0000 H   0  0  0  0  0  0  0  0  0  0  0  0
    6.5422    1.1674    0.0000 H   0  0  0  0  0  0  0  0  0  0  0  0
    6.9407    1.8577    0.0000 H   0  0  0  0  0  0  0  0  0  0  0  0
    3.7320    2.6300    0.0000 H   0  0  0  0  0  0  0  0  0  0  0  0
   13.2583   -2.6300    0.0000 H   0  0  0  0  0  0  0  0  0  0  0  0
   12.3923   -2.1300    0.0000 H   0  0  0  0  0  0  0  0  0  0  0  0
    4.3426    4.1423    0.0000 H   0  0  0  0  0  0  0  0  0  0  0  0
    3.9441    4.8326    0.0000 H   0  0  0  0  0  0  0  0  0  0  0  0
   12.6477   -4.1423    0.0000 H   0  0  0  0  0  0  0  0  0  0  0  0
   13.0463   -4.8326    0.0000 H   0  0  0  0  0  0  0  0  0  0  0  0
    4.0611   -1.5600    0.0000 H   0  0  0  0  0  0  0  0  0  0  0  0
    2.3291    3.0600    0.0000 H   0  0  0  0  0  0  0  0  0  0  0  0
    2.8660    2.1300    0.0000 H   0  0  0  0  0  0  0  0  0  0  0  0
   11.5263   -0.6300    0.0000 H   0  0  0  0  0  0  0  0  0  0  0  0
    6.8671    3.0600    0.0000 H   0  0  0  0  0  0  0  0  0  0  0  0
    6.6592   -6.0600    0.0000 H   0  0  0  0  0  0  0  0  0  0  0  0
   14.1244   -5.3700    0.0000 H   0  0  0  0  0  0  0  0  0  0  0  0
   15.5273   -2.9400    0.0000 H   0  0  0  0  0  0  0  0  0  0  0  0
    2.3291    6.0600    0.0000 H   0  0  0  0  0  0  0  0  0  0  0  0
  1 27  2  0  0  0  0
  2 30  1  0  0  0  0
  2 65  1  0  0  0  0
  3 28  2  0  0  0  0
  4 29  2  0  0  0  0
  5 31  1  0  0  0  0
  5 68  1  0  0  0  0
  6 33  1  0  0  0  0
  6 69  1  0  0  0  0
  7 32  2  0  0  0  0
  8 37  1  0  0  0  0
  8 70  1  0  0  0  0
  9 35  2  0  0  0  0
 10 37  2  0  0  0  0
 11 39  1  0  0  0  0
 11 71  1  0  0  0  0
 12 40  1  0  0  0  0
 12 72  1  0  0  0  0
 13 40  2  0  0  0  0
 14 41  1  0  0  0  0
 14 73  1  0  0  0  0
 15 41  2  0  0  0  0
 22 16  1  6  0  0  0
 16 27  1  0  0  0  0
 16 45  1  0  0  0  0
 23 17  1  6  0  0  0
 17 29  1  0  0  0  0
 17 49  1  0  0  0  0
 24 18  1  1  0  0  0
 18 28  1  0  0  0  0
 18 50  1  0  0  0  0
 25 19  1  1  0  0  0
 19 35  1  0  0  0  0
 19 55  1  0  0  0  0
 20 32  1  0  0  0  0
 36 20  1  6  0  0  0
 20 60  1  0  0  0  0
 34 21  1  1  0  0  0
 21 66  1  0  0  0  0
 21 67  1  0  0  0  0
 22 26  1  0  0  0  0
 22 28  1  0  0  0  0
 22 42  1  0  0  0  0
 23 27  1  0  0  0  0
 23 30  1  0  0  0  0
 23 43  1  0  0  0  0
 24 31  1  0  0  0  0
 24 32  1  0  0  0  0
 24 44  1  0  0  0  0
 25 29  1  0  0  0  0
 25 33  1  0  0  0  0
 25 46  1  0  0  0  0
 26 37  1  0  0  0  0
 26 47  1  0  0  0  0
 26 48  1  0  0  0  0
 30 51  1  0  0  0  0
 30 52  1  0  0  0  0
 31 53  1  0  0  0  0
 31 54  1  0  0  0  0
 33 56  1  0  0  0  0
 33 57  1  0  0  0  0
 34 35  1  0  0  0  0
 34 38  1  0  0  0  0
 34 58  1  0  0  0  0
 36 39  1  0  0  0  0
 36 40  1  0  0  0  0
 36 59  1  0  0  0  0
 38 41  1  0  0  0  0
 38 61  1  0  0  0  0
 38 62  1  0  0  0  0
 39 63  1  0  0  0  0
 39 64  1  0  0  0  0
M  END
> <PUBCHEM_COMPOUND_CID>
16222678

> <PUBCHEM_COMPOUND_CANONICALIZED>
1

> <PUBCHEM_CACTVS_COMPLEXITY>
992

> <PUBCHEM_CACTVS_HBOND_ACCEPTOR>
16

> <PUBCHEM_CACTVS_HBOND_DONOR>
13

> <PUBCHEM_CACTVS_ROTATABLE_BOND>
19

> <PUBCHEM_CACTVS_SUBSKEYS>
AAADcfB7vAAAAAAAAAAAAAAAAAAAAAAAAAAAAAAAAAAAAAAAAAAAHgAQCAAACCjhgAYACALAAgAIAAGQGAAAAAAAAAAAAIGIAAACUBwAgCAUQAAHNgCQAAAnAAAAAAAAAAAAAAAAAAAAAAAAAAAAAAAAAA==

> <PUBCHEM_IUPAC_OPENEYE_NAME>
(3S)-3-amino-4-[[(1S)-2-[[(1S)-2-[[(1S)-2-[[(1S)-2-[[(1S)-1-carboxy-2-hydroxy-ethyl]amino]-1-(hydroxymethyl)-2-oxo-ethyl]amino]-1-(carboxymethyl)-2-oxo-ethyl]amino]-1-(hydroxymethyl)-2-oxo-ethyl]amino]-1-(hydroxymethyl)-2-oxo-ethyl]amino]-4-oxo-butanoic acid

> <PUBCHEM_IUPAC_CAS_NAME>
(3S)-3-amino-4-[[(2S)-1-[[(2S)-1-[[(2S)-3-carboxy-1-[[(2S)-1-[[(1S)-1-carboxy-2-hydroxyethyl]amino]-3-hydroxy-1-oxopropan-2-yl]amino]-1-oxopropan-2-yl]amino]-3-hydroxy-1-oxopropan-2-yl]amino]-3-hydroxy-1-oxopropan-2-yl]amino]-4-oxobutanoic acid

> <PUBCHEM_IUPAC_NAME_MARKUP>
(3<I>S</I>)-3-amino-4-[[(2<I>S</I>)-1-[[(2<I>S</I>)-1-[[(2<I>S</I>)-3-carboxy-1-[[(2<I>S</I>)-1-[[(1<I>S</I>)-1-carboxy-2-hydroxyethyl]amino]-3-hydroxy-1-oxopropan-2-yl]amino]-1-oxopropan-2-yl]amino]-3-hydroxy-1-oxopropan-2-yl]amino]-3-hydroxy-1-oxopropan-2-yl]amino]-4-oxobutanoic acid

> <PUBCHEM_IUPAC_NAME>
(3S)-3-amino-4-[[(2S)-1-[[(2S)-1-[[(2S)-3-carboxy-1-[[(2S)-1-[[(1S)-1-carboxy-2-hydroxyethyl]amino]-3-hydroxy-1-oxopropan-2-yl]amino]-1-oxopropan-2-yl]amino]-3-hydroxy-1-oxopropan-2-yl]amino]-3-hydroxy-1-oxopropan-2-yl]amino]-4-oxobutanoic acid

> <PUBCHEM_IUPAC_SYSTEMATIC_NAME>
(3S)-3-azanyl-4-[[(2S)-1-[[(2S)-1-[[(2S)-1-[[(2S)-1-[[(2S)-1,3-bis(oxidanyl)-1-oxidanylidene-propan-2-yl]amino]-3-oxidanyl-1-oxidanylidene-propan-2-yl]amino]-4-oxidanyl-1,4-bis(oxidanylidene)butan-2-yl]amino]-3-oxidanyl-1-oxidanylidene-propan-2-yl]amino]-3-oxidanyl-1-oxidanylidene-propan-2-yl]amino]-4-oxidanylidene-butanoic acid

> <PUBCHEM_IUPAC_TRADITIONAL_NAME>
(3S)-3-amino-4-[[(1S)-2-[[(1S)-2-[[(1S)-2-[[(1S)-2-[[(1S)-1-carboxy-2-hydroxy-ethyl]amino]-2-keto-1-methylol-ethyl]amino]-1-(carboxymethyl)-2-keto-ethyl]amino]-2-keto-1-methylol-ethyl]amino]-2-keto-1-methylol-ethyl]amino]-4-keto-butyric acid

> <PUBCHEM_IUPAC_INCHI>
InChI=1S/C20H32N6O15/c21-7(1-13(31)32)15(35)23-9(3-27)18(38)25-10(4-28)17(37)22-8(2-14(33)34)16(36)24-11(5-29)19(39)26-12(6-30)20(40)41/h7-12,27-30H,1-6,21H2,(H,22,37)(H,23,35)(H,24,36)(H,25,38)(H,26,39)(H,31,32)(H,33,34)(H,40,41)/t7-,8-,9-,10-,11-,12-/m0/s1

> <PUBCHEM_IUPAC_INCHIKEY>
KUIVANGAQBBMEL-ZNSCXOEOSA-N

> <PUBCHEM_XLOGP3_AA>
-10.2

> <PUBCHEM_EXACT_MASS>
596.19256434

> <PUBCHEM_MOLECULAR_FORMULA>
C20H32N6O15

> <PUBCHEM_MOLECULAR_WEIGHT>
596.5

> <PUBCHEM_OPENEYE_CAN_SMILES>
C(C(C(=O)NC(CO)C(=O)NC(CO)C(=O)NC(CC(=O)O)C(=O)NC(CO)C(=O)NC(CO)C(=O)O)N)C(=O)O

> <PUBCHEM_OPENEYE_ISO_SMILES>
C([C@@H](C(=O)N[C@@H](CO)C(=O)N[C@@H](CO)C(=O)N[C@@H](CC(=O)O)C(=O)N[C@@H](CO)C(=O)N[C@@H](CO)C(=O)O)N)C(=O)O

> <PUBCHEM_CACTVS_TPSA>
364

> <PUBCHEM_MONOISOTOPIC_WEIGHT>
596.19256434

> <PUBCHEM_TOTAL_CHARGE>
0

> <PUBCHEM_HEAVY_ATOM_COUNT>
41

> <PUBCHEM_ATOM_DEF_STEREO_COUNT>
6

> <PUBCHEM_ATOM_UDEF_STEREO_COUNT>
0

> <PUBCHEM_BOND_DEF_STEREO_COUNT>
0

> <PUBCHEM_BOND_UDEF_STEREO_COUNT>
0

> <PUBCHEM_ISOTOPIC_ATOM_COUNT>
0

> <PUBCHEM_COMPONENT_COUNT>
1

> <PUBCHEM_CACTVS_TAUTO_COUNT>
-1

> <PUBCHEM_COORDINATE_TYPE>
1
5
255

> <PUBCHEM_BONDANNOTATIONS>
22  16  6
23  17  6
24  18  5
25  19  5
36  20  6
34  21  5

$$$$
