 
  -OEChem-10192104112D

 55 56  0     0  0  0  0  0  0999 V2000
    2.3100    0.1160    0.0000 O   0  0  0  0  0  0  0  0  0  0  0  0
    5.8428   -2.4557    0.0000 O   0  0  0  0  0  0  0  0  0  0  0  0
    3.8100    0.9821    0.0000 O   0  0  0  0  0  0  0  0  0  0  0  0
    4.2152   -1.8633    0.0000 O   0  0  0  0  0  0  0  0  0  0  0  0
    4.6760   -0.2500    0.0000 C   0  0  0  0  0  0  0  0  0  0  0  0
    3.8100   -0.7500    0.0000 C   0  0  0  0  0  0  0  0  0  0  0  0
    5.5420   -0.7500    0.0000 C   0  0  0  0  0  0  0  0  0  0  0  0
    2.9440   -1.2500    0.0000 C   0  0  0  0  0  0  0  0  0  0  0  0
    4.6760   -1.2500    0.0000 C   0  0  0  0  0  0  0  0  0  0  0  0
    6.0420    0.1160    0.0000 C   0  0  0  0  0  0  0  0  0  0  0  0
    6.0420   -1.6160    0.0000 C   0  0  0  0  0  0  0  0  0  0  0  0
    4.6760    0.7500    0.0000 C   0  0  0  0  0  0  0  0  0  0  0  0
    2.9440   -2.2500    0.0000 C   0  0  0  0  0  0  0  0  0  0  0  0
    4.6760   -2.2500    0.0000 C   0  0  0  0  0  0  0  0  0  0  0  0
    7.0420    0.1160    0.0000 C   0  0  0  0  0  0  0  0  0  0  0  0
    7.0420   -1.6160    0.0000 C   0  0  0  0  0  0  0  0  0  0  0  0
    3.8100   -2.7500    0.0000 C   0  0  0  0  0  0  0  0  0  0  0  0
    7.5420   -0.7500    0.0000 C   0  0  0  0  0  0  0  0  0  0  0  0
    3.3100    0.1160    0.0000 C   0  0  0  0  0  0  0  0  0  0  0  0
    5.2000   -1.6897    0.0000 C   0  0  0  0  0  0  0  0  0  0  0  0
    5.5420    1.2500    0.0000 C   0  0  0  0  0  0  0  0  0  0  0  0
    5.5420    2.2500    0.0000 C   0  0  0  0  0  0  0  0  0  0  0  0
    6.4081    2.7500    0.0000 C   0  0  0  0  0  0  0  0  0  0  0  0
    5.2130    0.0600    0.0000 H   0  0  0  0  0  0  0  0  0  0  0  0
    2.7319   -0.6674    0.0000 H   0  0  0  0  0  0  0  0  0  0  0  0
    2.3334   -1.3577    0.0000 H   0  0  0  0  0  0  0  0  0  0  0  0
    5.2866   -1.3577    0.0000 H   0  0  0  0  0  0  0  0  0  0  0  0
    4.8881   -0.6674    0.0000 H   0  0  0  0  0  0  0  0  0  0  0  0
    6.1497    0.7266    0.0000 H   0  0  0  0  0  0  0  0  0  0  0  0
    5.4594    0.3281    0.0000 H   0  0  0  0  0  0  0  0  0  0  0  0
    5.4594   -1.8281    0.0000 H   0  0  0  0  0  0  0  0  0  0  0  0
    6.1497   -2.2266    0.0000 H   0  0  0  0  0  0  0  0  0  0  0  0
    4.4640    1.3326    0.0000 H   0  0  0  0  0  0  0  0  0  0  0  0
    4.0654    0.6423    0.0000 H   0  0  0  0  0  0  0  0  0  0  0  0
    2.3334   -2.1423    0.0000 H   0  0  0  0  0  0  0  0  0  0  0  0
    2.7319   -2.8326    0.0000 H   0  0  0  0  0  0  0  0  0  0  0  0
    4.8881   -2.8326    0.0000 H   0  0  0  0  0  0  0  0  0  0  0  0
    5.2866   -2.1423    0.0000 H   0  0  0  0  0  0  0  0  0  0  0  0
    7.6247    0.3281    0.0000 H   0  0  0  0  0  0  0  0  0  0  0  0
    6.9344    0.7266    0.0000 H   0  0  0  0  0  0  0  0  0  0  0  0
    6.9344   -2.2266    0.0000 H   0  0  0  0  0  0  0  0  0  0  0  0
    7.6247   -1.8281    0.0000 H   0  0  0  0  0  0  0  0  0  0  0  0
    3.4115   -3.2250    0.0000 H   0  0  0  0  0  0  0  0  0  0  0  0
    4.2085   -3.2250    0.0000 H   0  0  0  0  0  0  0  0  0  0  0  0
    8.0170   -1.1485    0.0000 H   0  0  0  0  0  0  0  0  0  0  0  0
    8.0170   -0.3515    0.0000 H   0  0  0  0  0  0  0  0  0  0  0  0
    5.7541    0.6674    0.0000 H   0  0  0  0  0  0  0  0  0  0  0  0
    6.1526    1.3577    0.0000 H   0  0  0  0  0  0  0  0  0  0  0  0
    5.3300    2.8326    0.0000 H   0  0  0  0  0  0  0  0  0  0  0  0
    4.9315    2.1423    0.0000 H   0  0  0  0  0  0  0  0  0  0  0  0
    2.0000    0.6530    0.0000 H   0  0  0  0  0  0  0  0  0  0  0  0
    6.4534   -2.3481    0.0000 H   0  0  0  0  0  0  0  0  0  0  0  0
    6.7181    2.2131    0.0000 H   0  0  0  0  0  0  0  0  0  0  0  0
    6.9450    3.0600    0.0000 H   0  0  0  0  0  0  0  0  0  0  0  0
    6.0981    3.2869    0.0000 H   0  0  0  0  0  0  0  0  0  0  0  0
  1 19  1  0  0  0  0
  1 51  1  0  0  0  0
  2 20  1  0  0  0  0
  2 52  1  0  0  0  0
  3 19  2  0  0  0  0
  4 20  2  0  0  0  0
  5  6  1  0  0  0  0
  5  7  1  0  0  0  0
  5 12  1  0  0  0  0
  5 24  1  0  0  0  0
  6  8  1  0  0  0  0
  6  9  1  0  0  0  0
  6 19  1  0  0  0  0
  7 10  1  0  0  0  0
  7 11  1  0  0  0  0
  7 20  1  0  0  0  0
  8 13  1  0  0  0  0
  8 25  1  0  0  0  0
  8 26  1  0  0  0  0
  9 14  1  0  0  0  0
  9 27  1  0  0  0  0
  9 28  1  0  0  0  0
 10 15  1  0  0  0  0
 10 29  1  0  0  0  0
 10 30  1  0  0  0  0
 11 16  1  0  0  0  0
 11 31  1  0  0  0  0
 11 32  1  0  0  0  0
 12 21  1  0  0  0  0
 12 33  1  0  0  0  0
 12 34  1  0  0  0  0
 13 17  1  0  0  0  0
 13 35  1  0  0  0  0
 13 36  1  0  0  0  0
 14 17  1  0  0  0  0
 14 37  1  0  0  0  0
 14 38  1  0  0  0  0
 15 18  1  0  0  0  0
 15 39  1  0  0  0  0
 15 40  1  0  0  0  0
 16 18  1  0  0  0  0
 16 41  1  0  0  0  0
 16 42  1  0  0  0  0
 17 43  1  0  0  0  0
 17 44  1  0  0  0  0
 18 45  1  0  0  0  0
 18 46  1  0  0  0  0
 21 22  1  0  0  0  0
 21 47  1  0  0  0  0
 21 48  1  0  0  0  0
 22 23  1  0  0  0  0
 22 49  1  0  0  0  0
 22 50  1  0  0  0  0
 23 53  1  0  0  0  0
 23 54  1  0  0  0  0
 23 55  1  0  0  0  0
M  END
> <PUBCHEM_COMPOUND_CID>
90699129

> <PUBCHEM_COMPOUND_CANONICALIZED>
1

> <PUBCHEM_CACTVS_COMPLEXITY>
381

> <PUBCHEM_CACTVS_HBOND_ACCEPTOR>
4

> <PUBCHEM_CACTVS_HBOND_DONOR>
2

> <PUBCHEM_CACTVS_ROTATABLE_BOND>
7

> <PUBCHEM_CACTVS_SUBSKEYS>
AAADcfB4OAAAAAAAAAAAAAAAAAAAAAAAAAAwYAAAAAAAAAAAAAAAGgAACAAADwCAgAACCAAAAgAIAACQCAAAAAAAAAAAAAEAAAAAABIAAAAAQAAEAAAAAAGI7uCPgAAAAAAAAAAAAAAAAAAAAAAAAAAAAA==

> <PUBCHEM_IUPAC_OPENEYE_NAME>
1-[1-(1-carboxycyclohexyl)pentyl]cyclohexanecarboxylic acid

> <PUBCHEM_IUPAC_CAS_NAME>
1-[1-(1-carboxycyclohexyl)pentyl]-1-cyclohexanecarboxylic acid

> <PUBCHEM_IUPAC_NAME_MARKUP>
1-[1-(1-carboxycyclohexyl)pentyl]cyclohexane-1-carboxylic acid

> <PUBCHEM_IUPAC_NAME>
1-[1-(1-carboxycyclohexyl)pentyl]cyclohexane-1-carboxylic acid

> <PUBCHEM_IUPAC_SYSTEMATIC_NAME>
1-[1-(1-carboxycyclohexyl)pentyl]cyclohexane-1-carboxylic acid

> <PUBCHEM_IUPAC_TRADITIONAL_NAME>
1-[1-(1-carboxycyclohexyl)pentyl]cyclohexanecarboxylic acid

> <PUBCHEM_IUPAC_INCHI>
InChI=1S/C19H32O4/c1-2-3-10-15(18(16(20)21)11-6-4-7-12-18)19(17(22)23)13-8-5-9-14-19/h15H,2-14H2,1H3,(H,20,21)(H,22,23)

> <PUBCHEM_IUPAC_INCHIKEY>
BFNRGPGZKSFWIT-UHFFFAOYSA-N

> <PUBCHEM_XLOGP3_AA>
5.6

> <PUBCHEM_EXACT_MASS>
324.23005950

> <PUBCHEM_MOLECULAR_FORMULA>
C19H32O4

> <PUBCHEM_MOLECULAR_WEIGHT>
324.5

> <PUBCHEM_OPENEYE_CAN_SMILES>
CCCCC(C1(CCCCC1)C(=O)O)C2(CCCCC2)C(=O)O

> <PUBCHEM_OPENEYE_ISO_SMILES>
CCCCC(C1(CCCCC1)C(=O)O)C2(CCCCC2)C(=O)O

> <PUBCHEM_CACTVS_TPSA>
74.6

> <PUBCHEM_MONOISOTOPIC_WEIGHT>
324.23005950

> <PUBCHEM_TOTAL_CHARGE>
0

> <PUBCHEM_HEAVY_ATOM_COUNT>
23

> <PUBCHEM_ATOM_DEF_STEREO_COUNT>
0

> <PUBCHEM_ATOM_UDEF_STEREO_COUNT>
0

> <PUBCHEM_BOND_DEF_STEREO_COUNT>
0

> <PUBCHEM_BOND_UDEF_STEREO_COUNT>
0

> <PUBCHEM_ISOTOPIC_ATOM_COUNT>
0

> <PUBCHEM_COMPONENT_COUNT>
1

> <PUBCHEM_CACTVS_TAUTO_COUNT>
-1

> <PUBCHEM_COORDINATE_TYPE>
1
5
255

$$$$
