 
  -OEChem-10192103422D

 88 91  0     1  0  0  0  0  0999 V2000
    5.1350   -1.3450    0.0000 O   0  0  0  0  0  0  0  0  0  0  0  0
    6.8671   -1.3450    0.0000 O   0  0  0  0  0  0  0  0  0  0  0  0
    6.0010    0.1550    0.0000 O   0  0  0  0  0  0  0  0  0  0  0  0
    6.8671   -3.3450    0.0000 O   0  0  0  0  0  0  0  0  0  0  0  0
    5.1350   -4.3450    0.0000 O   0  0  0  0  0  0  0  0  0  0  0  0
   16.3933    3.1550    0.0000 O   0  0  0  0  0  0  0  0  0  0  0  0
    3.4030   -3.3450    0.0000 O   0  0  0  0  0  0  0  0  0  0  0  0
   14.6613    3.1550    0.0000 O   0  0  0  0  0  0  0  0  0  0  0  0
   18.1254    1.1550    0.0000 O   0  0  0  0  0  0  0  0  0  0  0  0
   16.3933    0.1550    0.0000 O   0  0  0  0  0  0  0  0  0  0  0  0
   14.6613    1.1550    0.0000 O   0  0  0  0  0  0  0  0  0  0  0  0
    2.5369   -1.8450    0.0000 O   0  0  0  0  0  0  0  0  0  0  0  0
   10.3312    1.6550    0.0000 O   0  0  0  0  0  0  0  0  0  0  0  0
   18.1254    4.1550    0.0000 O   0  0  0  0  0  0  0  0  0  0  0  0
    6.0010    3.1550    0.0000 O   0  0  0  0  0  0  0  0  0  0  0  0
    7.7331    3.1550    0.0000 O   0  0  0  0  0  0  0  0  0  0  0  0
   12.9292    4.1550    0.0000 O   0  0  0  0  0  0  0  0  0  0  0  0
   11.1972    0.1550    0.0000 O   0  0  0  0  0  0  0  0  0  0  0  0
    7.7331    0.1550    0.0000 C   0  0  2  0  0  0  0  0  0  0  0  0
    6.0010   -2.8450    0.0000 C   0  0  1  0  0  0  0  0  0  0  0  0
    6.0010   -1.8450    0.0000 C   0  0  1  0  0  0  0  0  0  0  0  0
    5.1350   -3.3450    0.0000 C   0  0  2  0  0  0  0  0  0  0  0  0
    7.7331    1.1550    0.0000 C   0  0  2  0  0  0  0  0  0  0  0  0
    4.2690   -2.8450    0.0000 C   0  0  1  0  0  0  0  0  0  0  0  0
    4.2690   -1.8450    0.0000 C   0  0  1  0  0  0  0  0  0  0  0  0
    6.8671   -0.3450    0.0000 C   0  0  2  0  0  0  0  0  0  0  0  0
    8.5991    1.6550    0.0000 C   0  0  0  0  0  0  0  0  0  0  0  0
    6.8671    1.6550    0.0000 C   0  0  0  0  0  0  0  0  0  0  0  0
   17.2594    1.6550    0.0000 C   0  0  1  0  0  0  0  0  0  0  0  0
   16.3933    1.1550    0.0000 C   0  0  1  0  0  0  0  0  0  0  0  0
   17.2594    2.6550    0.0000 C   0  0  1  0  0  0  0  0  0  0  0  0
   15.5273    1.6550    0.0000 C   0  0  2  0  0  0  0  0  0  0  0  0
    3.4030   -1.3450    0.0000 C   0  0  0  0  0  0  0  0  0  0  0  0
    8.5991   -0.3450    0.0000 C   0  0  0  0  0  0  0  0  0  0  0  0
   15.5273    2.6550    0.0000 C   0  0  1  0  0  0  0  0  0  0  0  0
    6.0010    1.1550    0.0000 C   0  0  0  0  0  0  0  0  0  0  0  0
    9.4651    1.1550    0.0000 C   0  0  0  0  0  0  0  0  0  0  0  0
   18.1254    3.1550    0.0000 C   0  0  0  0  0  0  0  0  0  0  0  0
    6.8671    2.6550    0.0000 C   0  0  0  0  0  0  0  0  0  0  0  0
    8.5991   -1.3450    0.0000 C   0  0  0  0  0  0  0  0  0  0  0  0
   13.7953    2.6550    0.0000 C   0  0  0  0  0  0  0  0  0  0  0  0
   11.1972    1.1550    0.0000 C   0  0  0  0  0  0  0  0  0  0  0  0
   12.0632    1.6550    0.0000 C   0  0  0  0  0  0  0  0  0  0  0  0
   12.9292    3.1550    0.0000 C   0  0  0  0  0  0  0  0  0  0  0  0
   13.7953    1.6550    0.0000 C   0  0  0  0  0  0  0  0  0  0  0  0
   12.0632    2.6550    0.0000 C   0  0  0  0  0  0  0  0  0  0  0  0
   12.9292    1.1550    0.0000 C   0  0  0  0  0  0  0  0  0  0  0  0
   12.0632    4.6550    0.0000 C   0  0  0  0  0  0  0  0  0  0  0  0
    8.2700    0.4650    0.0000 H   0  0  0  0  0  0  0  0  0  0  0  0
    6.0010   -3.4650    0.0000 H   0  0  0  0  0  0  0  0  0  0  0  0
    6.0010   -1.2250    0.0000 H   0  0  0  0  0  0  0  0  0  0  0  0
    4.5981   -3.6550    0.0000 H   0  0  0  0  0  0  0  0  0  0  0  0
    7.7331    1.7750    0.0000 H   0  0  0  0  0  0  0  0  0  0  0  0
    4.2690   -3.4650    0.0000 H   0  0  0  0  0  0  0  0  0  0  0  0
    4.2690   -1.2250    0.0000 H   0  0  0  0  0  0  0  0  0  0  0  0
    7.4040   -0.6550    0.0000 H   0  0  0  0  0  0  0  0  0  0  0  0
    8.9976    2.1300    0.0000 H   0  0  0  0  0  0  0  0  0  0  0  0
    8.2006    2.1300    0.0000 H   0  0  0  0  0  0  0  0  0  0  0  0
   17.7963    1.9650    0.0000 H   0  0  0  0  0  0  0  0  0  0  0  0
   16.9303    0.8450    0.0000 H   0  0  0  0  0  0  0  0  0  0  0  0
   17.2594    3.2750    0.0000 H   0  0  0  0  0  0  0  0  0  0  0  0
   15.5273    1.0350    0.0000 H   0  0  0  0  0  0  0  0  0  0  0  0
    3.8015   -0.8701    0.0000 H   0  0  0  0  0  0  0  0  0  0  0  0
    3.0044   -0.8701    0.0000 H   0  0  0  0  0  0  0  0  0  0  0  0
    9.1360   -0.0350    0.0000 H   0  0  0  0  0  0  0  0  0  0  0  0
   15.5273    3.2750    0.0000 H   0  0  0  0  0  0  0  0  0  0  0  0
    5.4641    1.4650    0.0000 H   0  0  0  0  0  0  0  0  0  0  0  0
    9.0666    0.6801    0.0000 H   0  0  0  0  0  0  0  0  0  0  0  0
    9.8637    0.6801    0.0000 H   0  0  0  0  0  0  0  0  0  0  0  0
    6.8671   -3.9650    0.0000 H   0  0  0  0  0  0  0  0  0  0  0  0
    4.5981   -4.6550    0.0000 H   0  0  0  0  0  0  0  0  0  0  0  0
    3.4030   -3.9650    0.0000 H   0  0  0  0  0  0  0  0  0  0  0  0
   18.3374    2.5724    0.0000 H   0  0  0  0  0  0  0  0  0  0  0  0
   18.7360    3.2627    0.0000 H   0  0  0  0  0  0  0  0  0  0  0  0
    8.0622   -1.6550    0.0000 H   0  0  0  0  0  0  0  0  0  0  0  0
    9.1360   -1.6550    0.0000 H   0  0  0  0  0  0  0  0  0  0  0  0
   18.6623    1.4650    0.0000 H   0  0  0  0  0  0  0  0  0  0  0  0
   16.9303   -0.1550    0.0000 H   0  0  0  0  0  0  0  0  0  0  0  0
   14.6613    0.5350    0.0000 H   0  0  0  0  0  0  0  0  0  0  0  0
    2.0000   -1.5350    0.0000 H   0  0  0  0  0  0  0  0  0  0  0  0
   18.6623    4.4650    0.0000 H   0  0  0  0  0  0  0  0  0  0  0  0
    6.0010    3.7750    0.0000 H   0  0  0  0  0  0  0  0  0  0  0  0
   14.3322    1.3450    0.0000 H   0  0  0  0  0  0  0  0  0  0  0  0
   11.5263    2.9650    0.0000 H   0  0  0  0  0  0  0  0  0  0  0  0
   12.9292    0.5350    0.0000 H   0  0  0  0  0  0  0  0  0  0  0  0
   12.3732    5.1919    0.0000 H   0  0  0  0  0  0  0  0  0  0  0  0
   11.5263    4.9650    0.0000 H   0  0  0  0  0  0  0  0  0  0  0  0
   11.7532    4.1181    0.0000 H   0  0  0  0  0  0  0  0  0  0  0  0
  1 21  1  0  0  0  0
  1 25  1  0  0  0  0
 21  2  1  1  0  0  0
 26  2  1  6  0  0  0
  3 26  1  0  0  0  0
  3 36  1  0  0  0  0
 20  4  1  6  0  0  0
  4 70  1  0  0  0  0
 22  5  1  1  0  0  0
  5 71  1  0  0  0  0
  6 31  1  0  0  0  0
  6 35  1  0  0  0  0
 24  7  1  6  0  0  0
  7 72  1  0  0  0  0
 35  8  1  6  0  0  0
  8 41  1  0  0  0  0
 29  9  1  1  0  0  0
  9 77  1  0  0  0  0
 30 10  1  6  0  0  0
 10 78  1  0  0  0  0
 32 11  1  1  0  0  0
 11 79  1  0  0  0  0
 12 33  1  0  0  0  0
 12 80  1  0  0  0  0
 13 37  1  0  0  0  0
 13 42  1  0  0  0  0
 14 38  1  0  0  0  0
 14 81  1  0  0  0  0
 15 39  1  0  0  0  0
 15 82  1  0  0  0  0
 16 39  2  0  0  0  0
 17 44  1  0  0  0  0
 17 48  1  0  0  0  0
 18 42  2  0  0  0  0
 19 23  1  0  0  0  0
 19 26  1  0  0  0  0
 19 34  1  1  0  0  0
 19 49  1  0  0  0  0
 20 21  1  0  0  0  0
 20 22  1  0  0  0  0
 20 50  1  0  0  0  0
 21 51  1  0  0  0  0
 22 24  1  0  0  0  0
 22 52  1  0  0  0  0
 23 27  1  1  0  0  0
 23 28  1  0  0  0  0
 23 53  1  0  0  0  0
 24 25  1  0  0  0  0
 24 54  1  0  0  0  0
 25 33  1  1  0  0  0
 25 55  1  0  0  0  0
 26 56  1  0  0  0  0
 27 37  1  0  0  0  0
 27 57  1  0  0  0  0
 27 58  1  0  0  0  0
 28 36  2  0  0  0  0
 28 39  1  0  0  0  0
 29 30  1  0  0  0  0
 29 31  1  0  0  0  0
 29 59  1  0  0  0  0
 30 32  1  0  0  0  0
 30 60  1  0  0  0  0
 31 38  1  6  0  0  0
 31 61  1  0  0  0  0
 32 35  1  0  0  0  0
 32 62  1  0  0  0  0
 33 63  1  0  0  0  0
 33 64  1  0  0  0  0
 34 40  2  0  0  0  0
 34 65  1  0  0  0  0
 35 66  1  0  0  0  0
 36 67  1  0  0  0  0
 37 68  1  0  0  0  0
 37 69  1  0  0  0  0
 38 73  1  0  0  0  0
 38 74  1  0  0  0  0
 40 75  1  0  0  0  0
 40 76  1  0  0  0  0
 41 44  2  0  0  0  0
 41 45  1  0  0  0  0
 42 43  1  0  0  0  0
 43 46  2  0  0  0  0
 43 47  1  0  0  0  0
 44 46  1  0  0  0  0
 45 47  2  0  0  0  0
 45 83  1  0  0  0  0
 46 84  1  0  0  0  0
 47 85  1  0  0  0  0
 48 86  1  0  0  0  0
 48 87  1  0  0  0  0
 48 88  1  0  0  0  0
M  END
> <PUBCHEM_COMPOUND_CID>
11039732

> <PUBCHEM_COMPOUND_CANONICALIZED>
1

> <PUBCHEM_CACTVS_COMPLEXITY>
1120

> <PUBCHEM_CACTVS_HBOND_ACCEPTOR>
18

> <PUBCHEM_CACTVS_HBOND_DONOR>
9

> <PUBCHEM_CACTVS_ROTATABLE_BOND>
14

> <PUBCHEM_CACTVS_SUBSKEYS>
AAADcfB4PgAAAAAAAAAAAAAAAAAAAAAAAAA0SIEAAAAAAAABAAAAGgAACAAADRSwmAMyDoAABgCIAiDSCAACCAAkIAAIiAEGiMgdNjKENRqieSKlwBEPuYfK7DzOoAABAAAAQABAAAIAAACAAAAAAAAAAA==

> <PUBCHEM_IUPAC_OPENEYE_NAME>
(2S,3R,4S)-4-[2-[3-methoxy-4-[(2S,3R,4S,5S,6R)-3,4,5-trihydroxy-6-(hydroxymethyl)tetrahydropyran-2-yl]oxy-benzoyl]oxyethyl]-2-[(2S,3R,4S,5S,6R)-3,4,5-trihydroxy-6-(hydroxymethyl)tetrahydropyran-2-yl]oxy-3-vinyl-3,4-dihydro-2H-pyran-5-carboxylic acid

> <PUBCHEM_IUPAC_CAS_NAME>
(2S,3R,4S)-3-ethenyl-4-[2-[[3-methoxy-4-[[(2S,3R,4S,5S,6R)-3,4,5-trihydroxy-6-(hydroxymethyl)-2-oxanyl]oxy]phenyl]-oxomethoxy]ethyl]-2-[[(2S,3R,4S,5S,6R)-3,4,5-trihydroxy-6-(hydroxymethyl)-2-oxanyl]oxy]-3,4-dihydro-2H-pyran-5-carboxylic acid

> <PUBCHEM_IUPAC_NAME_MARKUP>
(2<I>S</I>,3<I>R</I>,4<I>S</I>)-3-ethenyl-4-[2-[3-methoxy-4-[(2<I>S</I>,3<I>R</I>,4<I>S</I>,5<I>S</I>,6<I>R</I>)-3,4,5-trihydroxy-6-(hydroxymethyl)oxan-2-yl]oxybenzoyl]oxyethyl]-2-[(2<I>S</I>,3<I>R</I>,4<I>S</I>,5<I>S</I>,6<I>R</I>)-3,4,5-trihydroxy-6-(hydroxymethyl)oxan-2-yl]oxy-3,4-dihydro-2<I>H</I>-pyran-5-carboxylic acid

> <PUBCHEM_IUPAC_NAME>
(2S,3R,4S)-3-ethenyl-4-[2-[3-methoxy-4-[(2S,3R,4S,5S,6R)-3,4,5-trihydroxy-6-(hydroxymethyl)oxan-2-yl]oxybenzoyl]oxyethyl]-2-[(2S,3R,4S,5S,6R)-3,4,5-trihydroxy-6-(hydroxymethyl)oxan-2-yl]oxy-3,4-dihydro-2H-pyran-5-carboxylic acid

> <PUBCHEM_IUPAC_SYSTEMATIC_NAME>
(2S,3R,4S)-3-ethenyl-2-[(2S,3R,4S,5S,6R)-6-(hydroxymethyl)-3,4,5-tris(oxidanyl)oxan-2-yl]oxy-4-[2-[4-[(2S,3R,4S,5S,6R)-6-(hydroxymethyl)-3,4,5-tris(oxidanyl)oxan-2-yl]oxy-3-methoxy-phenyl]carbonyloxyethyl]-3,4-dihydro-2H-pyran-5-carboxylic acid

> <PUBCHEM_IUPAC_TRADITIONAL_NAME>
(2S,3R,4S)-4-[2-[3-methoxy-4-[(2S,3R,4S,5S,6R)-3,4,5-trihydroxy-6-methylol-tetrahydropyran-2-yl]oxy-benzoyl]oxyethyl]-2-[(2S,3R,4S,5S,6R)-3,4,5-trihydroxy-6-methylol-tetrahydropyran-2-yl]oxy-3-vinyl-3,4-dihydro-2H-pyran-5-carboxylic acid

> <PUBCHEM_IUPAC_INCHI>
InChI=1S/C30H40O18/c1-3-13-14(15(26(39)40)11-44-28(13)48-30-25(38)23(36)21(34)19(10-32)47-30)6-7-43-27(41)12-4-5-16(17(8-12)42-2)45-29-24(37)22(35)20(33)18(9-31)46-29/h3-5,8,11,13-14,18-25,28-38H,1,6-7,9-10H2,2H3,(H,39,40)/t13-,14+,18-,19-,20-,21-,22+,23+,24-,25-,28+,29-,30+/m1/s1

> <PUBCHEM_IUPAC_INCHIKEY>
VHFHOBRIZGOORR-GSIFQPCXSA-N

> <PUBCHEM_XLOGP3_AA>
-1.7

> <PUBCHEM_EXACT_MASS>
688.22146442

> <PUBCHEM_MOLECULAR_FORMULA>
C30H40O18

> <PUBCHEM_MOLECULAR_WEIGHT>
688.6

> <PUBCHEM_OPENEYE_CAN_SMILES>
COC1=C(C=CC(=C1)C(=O)OCCC2C(C(OC=C2C(=O)O)OC3C(C(C(C(O3)CO)O)O)O)C=C)OC4C(C(C(C(O4)CO)O)O)O

> <PUBCHEM_OPENEYE_ISO_SMILES>
COC1=C(C=CC(=C1)C(=O)OCC[C@H]2[C@H]([C@@H](OC=C2C(=O)O)O[C@H]3[C@@H]([C@H]([C@@H]([C@H](O3)CO)O)O)O)C=C)O[C@H]4[C@@H]([C@H]([C@@H]([C@H](O4)CO)O)O)O

> <PUBCHEM_CACTVS_TPSA>
281

> <PUBCHEM_MONOISOTOPIC_WEIGHT>
688.22146442

> <PUBCHEM_TOTAL_CHARGE>
0

> <PUBCHEM_HEAVY_ATOM_COUNT>
48

> <PUBCHEM_ATOM_DEF_STEREO_COUNT>
13

> <PUBCHEM_ATOM_UDEF_STEREO_COUNT>
0

> <PUBCHEM_BOND_DEF_STEREO_COUNT>
0

> <PUBCHEM_BOND_UDEF_STEREO_COUNT>
0

> <PUBCHEM_ISOTOPIC_ATOM_COUNT>
0

> <PUBCHEM_COMPONENT_COUNT>
1

> <PUBCHEM_CACTVS_TAUTO_COUNT>
-1

> <PUBCHEM_COORDINATE_TYPE>
1
5
255

> <PUBCHEM_BONDANNOTATIONS>
30  10  6
32  11  5
19  34  5
21  2  5
26  2  6
23  27  5
25  33  5
31  38  6
20  4  6
41  44  8
41  45  8
43  46  8
43  47  8
44  46  8
45  47  8
22  5  5
24  7  6
35  8  6
29  9  5

$$$$
