 
  -OEChem-10192104302D

 76 80  0     1  0  0  0  0  0999 V2000
    5.1459   -3.1913    0.0000 O   0  0  0  0  0  0  0  0  0  0  0  0
    6.8779   -3.1913    0.0000 O   0  0  0  0  0  0  0  0  0  0  0  0
    5.1396    3.8813    0.0000 O   0  0  0  0  0  0  0  0  0  0  0  0
    5.1459   -6.1913    0.0000 O   0  0  0  0  0  0  0  0  0  0  0  0
    6.8779   -5.1913    0.0000 O   0  0  0  0  0  0  0  0  0  0  0  0
    3.4138   -5.1913    0.0000 O   0  0  0  0  0  0  0  0  0  0  0  0
    7.7440   -0.6913    0.0000 O   0  0  0  0  0  0  0  0  0  0  0  0
    5.9998    2.3780    0.0000 O   0  0  0  0  0  0  0  0  0  0  0  0
    2.5357    2.3913    0.0000 O   0  0  0  0  0  0  0  0  0  0  0  0
    2.5434    4.3913    0.0000 O   0  0  0  0  0  0  0  0  0  0  0  0
    4.2639    1.3847    0.0000 O   0  0  0  0  0  0  0  0  0  0  0  0
    2.5478   -3.6913    0.0000 O   0  0  0  0  0  0  0  0  0  0  0  0
    5.1473    5.8813    0.0000 O   0  0  0  0  0  0  0  0  0  0  0  0
    5.1459   -2.1913    0.0000 O   0  0  0  0  0  0  0  0  0  0  0  0
    4.2417   -0.6944    0.0000 O   0  0  0  0  0  0  0  0  0  0  0  0
   11.2081   -1.6913    0.0000 O   0  0  0  0  0  0  0  0  0  0  0  0
   11.2081   -3.6913    0.0000 O   0  0  0  0  0  0  0  0  0  0  0  0
    5.1459   -5.1913    0.0000 C   0  0  2  0  0  0  0  0  0  0  0  0
    6.0119   -4.6913    0.0000 C   0  0  2  0  0  0  0  0  0  0  0  0
    4.2799   -4.6913    0.0000 C   0  0  1  0  0  0  0  0  0  0  0  0
    6.0119   -3.6913    0.0000 C   0  0  1  0  0  0  0  0  0  0  0  0
    4.2799   -3.6913    0.0000 C   0  0  1  0  0  0  0  0  0  0  0  0
    3.4037    2.8880    0.0000 C   0  0  1  0  0  0  0  0  0  0  0  0
    3.4075    3.8880    0.0000 C   0  0  1  0  0  0  0  0  0  0  0  0
    4.2678    2.3846    0.0000 C   0  0  2  0  0  0  0  0  0  0  0  0
    6.8779   -2.1913    0.0000 C   0  0  3  0  0  0  0  0  0  0  0  0
    4.2755    4.3846    0.0000 C   0  0  1  0  0  0  0  0  0  0  0  0
    5.1357    2.8813    0.0000 C   0  0  1  0  0  0  0  0  0  0  0  0
    7.7440   -1.6913    0.0000 C   0  0  3  0  0  0  0  0  0  0  0  0
    3.4138   -3.1913    0.0000 C   0  0  0  0  0  0  0  0  0  0  0  0
    6.0119   -1.6913    0.0000 C   0  0  0  0  0  0  0  0  0  0  0  0
    4.2793    5.3846    0.0000 C   0  0  0  0  0  0  0  0  0  0  0  0
    6.0119   -0.6913    0.0000 C   0  0  0  0  0  0  0  0  0  0  0  0
    6.8779   -0.1913    0.0000 C   0  0  0  0  0  0  0  0  0  0  0  0
    8.6100   -2.1913    0.0000 C   0  0  0  0  0  0  0  0  0  0  0  0
    5.9960    1.3780    0.0000 C   0  0  0  0  0  0  0  0  0  0  0  0
    6.8940    0.8502    0.0000 C   0  0  0  0  0  0  0  0  0  0  0  0
    5.1019   -0.1844    0.0000 C   0  0  0  0  0  0  0  0  0  0  0  0
    5.0939    0.8572    0.0000 C   0  0  0  0  0  0  0  0  0  0  0  0
    9.4760   -1.6913    0.0000 C   0  0  0  0  0  0  0  0  0  0  0  0
    8.6100   -3.1913    0.0000 C   0  0  0  0  0  0  0  0  0  0  0  0
   10.3420   -2.1913    0.0000 C   0  0  0  0  0  0  0  0  0  0  0  0
    9.4760   -3.6913    0.0000 C   0  0  0  0  0  0  0  0  0  0  0  0
   10.3420   -3.1913    0.0000 C   0  0  0  0  0  0  0  0  0  0  0  0
    4.6090   -5.5013    0.0000 H   0  0  0  0  0  0  0  0  0  0  0  0
    6.0119   -5.3113    0.0000 H   0  0  0  0  0  0  0  0  0  0  0  0
    3.7429   -4.3813    0.0000 H   0  0  0  0  0  0  0  0  0  0  0  0
    6.0119   -3.0713    0.0000 H   0  0  0  0  0  0  0  0  0  0  0  0
    4.2799   -3.0713    0.0000 H   0  0  0  0  0  0  0  0  0  0  0  0
    2.8680    3.2000    0.0000 H   0  0  0  0  0  0  0  0  0  0  0  0
    2.8694    3.5800    0.0000 H   0  0  0  0  0  0  0  0  0  0  0  0
    3.7296    2.0767    0.0000 H   0  0  0  0  0  0  0  0  0  0  0  0
    7.4149   -2.5013    0.0000 H   0  0  0  0  0  0  0  0  0  0  0  0
    4.8136    4.6926    0.0000 H   0  0  0  0  0  0  0  0  0  0  0  0
    5.1333    2.2613    0.0000 H   0  0  0  0  0  0  0  0  0  0  0  0
    8.2809   -1.3813    0.0000 H   0  0  0  0  0  0  0  0  0  0  0  0
    3.8124   -2.7163    0.0000 H   0  0  0  0  0  0  0  0  0  0  0  0
    3.0153   -2.7163    0.0000 H   0  0  0  0  0  0  0  0  0  0  0  0
    4.0695    5.9680    0.0000 H   0  0  0  0  0  0  0  0  0  0  0  0
    3.6684    5.2793    0.0000 H   0  0  0  0  0  0  0  0  0  0  0  0
    4.6090   -6.5013    0.0000 H   0  0  0  0  0  0  0  0  0  0  0  0
    6.8779   -5.8113    0.0000 H   0  0  0  0  0  0  0  0  0  0  0  0
    3.4138   -5.8113    0.0000 H   0  0  0  0  0  0  0  0  0  0  0  0
    7.4345    1.1540    0.0000 H   0  0  0  0  0  0  0  0  0  0  0  0
    2.0000    2.7034    0.0000 H   0  0  0  0  0  0  0  0  0  0  0  0
    2.5458    5.0113    0.0000 H   0  0  0  0  0  0  0  0  0  0  0  0
    3.7258    1.0767    0.0000 H   0  0  0  0  0  0  0  0  0  0  0  0
    4.5558    1.1651    0.0000 H   0  0  0  0  0  0  0  0  0  0  0  0
    2.0109   -3.3813    0.0000 H   0  0  0  0  0  0  0  0  0  0  0  0
    9.4760   -1.0713    0.0000 H   0  0  0  0  0  0  0  0  0  0  0  0
    8.0730   -3.5013    0.0000 H   0  0  0  0  0  0  0  0  0  0  0  0
    5.1497    6.5013    0.0000 H   0  0  0  0  0  0  0  0  0  0  0  0
    9.4760   -4.3113    0.0000 H   0  0  0  0  0  0  0  0  0  0  0  0
    3.7012   -0.3906    0.0000 H   0  0  0  0  0  0  0  0  0  0  0  0
   11.2081   -1.0713    0.0000 H   0  0  0  0  0  0  0  0  0  0  0  0
   11.2081   -4.3113    0.0000 H   0  0  0  0  0  0  0  0  0  0  0  0
  1 21  1  0  0  0  0
  1 22  1  0  0  0  0
 21  2  1  1  0  0  0
  2 26  1  0  0  0  0
  3 27  1  0  0  0  0
  3 28  1  0  0  0  0
 18  4  1  1  0  0  0
  4 61  1  0  0  0  0
 19  5  1  6  0  0  0
  5 62  1  0  0  0  0
 20  6  1  6  0  0  0
  6 63  1  0  0  0  0
  7 29  1  0  0  0  0
  7 34  1  0  0  0  0
 28  8  1  1  0  0  0
  8 36  1  0  0  0  0
 23  9  1  1  0  0  0
  9 65  1  0  0  0  0
 24 10  1  6  0  0  0
 10 66  1  0  0  0  0
 25 11  1  6  0  0  0
 11 67  1  0  0  0  0
 12 30  1  0  0  0  0
 12 69  1  0  0  0  0
 13 32  1  0  0  0  0
 13 72  1  0  0  0  0
 14 31  2  0  0  0  0
 15 38  1  0  0  0  0
 15 74  1  0  0  0  0
 16 42  1  0  0  0  0
 16 75  1  0  0  0  0
 17 44  1  0  0  0  0
 17 76  1  0  0  0  0
 18 19  1  0  0  0  0
 18 20  1  0  0  0  0
 18 45  1  0  0  0  0
 19 21  1  0  0  0  0
 19 46  1  0  0  0  0
 20 22  1  0  0  0  0
 20 47  1  0  0  0  0
 21 48  1  0  0  0  0
 22 30  1  1  0  0  0
 22 49  1  0  0  0  0
 23 24  1  0  0  0  0
 23 25  1  0  0  0  0
 23 50  1  0  0  0  0
 24 27  1  0  0  0  0
 24 51  1  0  0  0  0
 25 28  1  0  0  0  0
 25 52  1  0  0  0  0
 26 29  1  0  0  0  0
 26 31  1  0  0  0  0
 26 53  1  0  0  0  0
 27 32  1  1  0  0  0
 27 54  1  0  0  0  0
 28 55  1  0  0  0  0
 29 35  1  0  0  0  0
 29 56  1  0  0  0  0
 30 57  1  0  0  0  0
 30 58  1  0  0  0  0
 31 33  1  0  0  0  0
 32 59  1  0  0  0  0
 32 60  1  0  0  0  0
 33 34  1  0  0  0  0
 33 38  2  0  0  0  0
 34 37  2  0  0  0  0
 35 40  2  0  0  0  0
 35 41  1  0  0  0  0
 36 37  1  0  0  0  0
 36 39  2  0  0  0  0
 37 64  1  0  0  0  0
 38 39  1  0  0  0  0
 39 68  1  0  0  0  0
 40 42  1  0  0  0  0
 40 70  1  0  0  0  0
 41 43  2  0  0  0  0
 41 71  1  0  0  0  0
 42 44  2  0  0  0  0
 43 44  1  0  0  0  0
 43 73  1  0  0  0  0
M  END
> <PUBCHEM_COMPOUND_CID>
5317187

> <PUBCHEM_COMPOUND_CANONICALIZED>
1

> <PUBCHEM_CACTVS_COMPLEXITY>
973

> <PUBCHEM_CACTVS_HBOND_ACCEPTOR>
17

> <PUBCHEM_CACTVS_HBOND_DONOR>
11

> <PUBCHEM_CACTVS_ROTATABLE_BOND>
7

> <PUBCHEM_CACTVS_SUBSKEYS>
AAADcfB4PgAAAAAAAAAAAAAAAAAAAAAAAAA0aJECAAAAAACRQAAAGgAACAAADBSwmAMwDoAABgCIAqBSAAICCAAkIAAIiAFGiMgdNzaGNR6ieWGl4BUPuQfI7PzOIAABCAAIQABAAAIQABCAAAAAAAAAAA==

> <PUBCHEM_IUPAC_OPENEYE_NAME>
2-(3,4-dihydroxyphenyl)-5-hydroxy-3,7-bis[[(2S,3R,4S,5S,6R)-3,4,5-trihydroxy-6-(hydroxymethyl)tetrahydropyran-2-yl]oxy]chroman-4-one

> <PUBCHEM_IUPAC_CAS_NAME>
2-(3,4-dihydroxyphenyl)-5-hydroxy-3,7-bis[[(2S,3R,4S,5S,6R)-3,4,5-trihydroxy-6-(hydroxymethyl)-2-oxanyl]oxy]-3,4-dihydro-2H-1-benzopyran-4-one

> <PUBCHEM_IUPAC_NAME_MARKUP>
2-(3,4-dihydroxyphenyl)-5-hydroxy-3,7-bis[[(2<I>S</I>,3<I>R</I>,4<I>S</I>,5<I>S</I>,6<I>R</I>)-3,4,5-trihydroxy-6-(hydroxymethyl)oxan-2-yl]oxy]-2,3-dihydrochromen-4-one

> <PUBCHEM_IUPAC_NAME>
2-(3,4-dihydroxyphenyl)-5-hydroxy-3,7-bis[[(2S,3R,4S,5S,6R)-3,4,5-trihydroxy-6-(hydroxymethyl)oxan-2-yl]oxy]-2,3-dihydrochromen-4-one

> <PUBCHEM_IUPAC_SYSTEMATIC_NAME>
2-[3,4-bis(oxidanyl)phenyl]-3,7-bis[[(2S,3R,4S,5S,6R)-6-(hydroxymethyl)-3,4,5-tris(oxidanyl)oxan-2-yl]oxy]-5-oxidanyl-2,3-dihydrochromen-4-one

> <PUBCHEM_IUPAC_TRADITIONAL_NAME>
2-(3,4-dihydroxyphenyl)-5-hydroxy-3,7-bis[[(2S,3R,4S,5S,6R)-3,4,5-trihydroxy-6-methylol-tetrahydropyran-2-yl]oxy]chroman-4-one

> <PUBCHEM_IUPAC_INCHI>
InChI=1S/C27H32O17/c28-6-14-17(33)20(36)22(38)26(42-14)40-9-4-12(32)16-13(5-9)41-24(8-1-2-10(30)11(31)3-8)25(19(16)35)44-27-23(39)21(37)18(34)15(7-29)43-27/h1-5,14-15,17-18,20-34,36-39H,6-7H2/t14-,15-,17-,18-,20+,21+,22-,23-,24?,25?,26-,27+/m1/s1

> <PUBCHEM_IUPAC_INCHIKEY>
DPTVRZXQCBYWIK-MDHDDBBLSA-N

> <PUBCHEM_XLOGP3_AA>
-1.9

> <PUBCHEM_EXACT_MASS>
628.16394955

> <PUBCHEM_MOLECULAR_FORMULA>
C27H32O17

> <PUBCHEM_MOLECULAR_WEIGHT>
628.5

> <PUBCHEM_OPENEYE_CAN_SMILES>
C1=CC(=C(C=C1C2C(C(=O)C3=C(C=C(C=C3O2)OC4C(C(C(C(O4)CO)O)O)O)O)OC5C(C(C(C(O5)CO)O)O)O)O)O

> <PUBCHEM_OPENEYE_ISO_SMILES>
C1=CC(=C(C=C1C2C(C(=O)C3=C(C=C(C=C3O2)O[C@H]4[C@@H]([C@H]([C@@H]([C@H](O4)CO)O)O)O)O)O[C@H]5[C@@H]([C@H]([C@@H]([C@H](O5)CO)O)O)O)O)O

> <PUBCHEM_CACTVS_TPSA>
286

> <PUBCHEM_MONOISOTOPIC_WEIGHT>
628.16394955

> <PUBCHEM_TOTAL_CHARGE>
0

> <PUBCHEM_HEAVY_ATOM_COUNT>
44

> <PUBCHEM_ATOM_DEF_STEREO_COUNT>
10

> <PUBCHEM_ATOM_UDEF_STEREO_COUNT>
2

> <PUBCHEM_BOND_DEF_STEREO_COUNT>
0

> <PUBCHEM_BOND_UDEF_STEREO_COUNT>
0

> <PUBCHEM_ISOTOPIC_ATOM_COUNT>
0

> <PUBCHEM_COMPONENT_COUNT>
1

> <PUBCHEM_CACTVS_TAUTO_COUNT>
-1

> <PUBCHEM_COORDINATE_TYPE>
1
5
255

> <PUBCHEM_BONDANNOTATIONS>
24  10  6
25  11  6
21  2  5
26  2  3
22  30  5
27  32  5
29  35  3
33  34  8
33  38  8
34  37  8
35  40  8
35  41  8
36  37  8
36  39  8
38  39  8
18  4  5
40  42  8
41  43  8
42  44  8
43  44  8
19  5  6
20  6  6
28  8  5
23  9  5

$$$$
