 
  -OEChem-10192104172D

 24 24  0     1  0  0  0  0  0999 V2000
    5.1350   -1.0000    0.0000 O   0  0  0  0  0  0  0  0  0  0  0  0
    5.1350    2.0000    0.0000 O   0  0  0  0  0  0  0  0  0  0  0  0
    6.8671    1.0000    0.0000 O   0  0  0  0  0  0  0  0  0  0  0  0
    6.8671   -2.0000    0.0000 O   0  0  0  0  0  0  0  0  0  0  0  0
    2.5369   -0.5000    0.0000 O   0  0  0  0  0  0  0  0  0  0  0  0
    7.7331   -0.5000    0.0000 O   0  0  0  0  0  0  0  0  0  0  0  0
    3.4030   -2.0000    0.0000 O   0  0  0  0  0  0  0  0  0  0  0  0
    5.1350    1.0000    0.0000 C   0  0  3  0  0  0  0  0  0  0  0  0
    6.0010    0.5000    0.0000 C   0  0  3  0  0  0  0  0  0  0  0  0
    4.2690    0.5000    0.0000 C   0  0  0  0  0  0  0  0  0  0  0  0
    6.0010   -0.5000    0.0000 C   0  0  3  0  0  0  0  0  0  0  0  0
    4.2690   -0.5000    0.0000 C   0  0  3  0  0  0  0  0  0  0  0  0
    6.8671   -1.0000    0.0000 C   0  0  0  0  0  0  0  0  0  0  0  0
    3.4030   -1.0000    0.0000 C   0  0  0  0  0  0  0  0  0  0  0  0
    5.6720    1.3100    0.0000 H   0  0  0  0  0  0  0  0  0  0  0  0
    6.5380    0.1900    0.0000 H   0  0  0  0  0  0  0  0  0  0  0  0
    4.0569    1.0826    0.0000 H   0  0  0  0  0  0  0  0  0  0  0  0
    3.6584    0.3923    0.0000 H   0  0  0  0  0  0  0  0  0  0  0  0
    6.0010   -1.1200    0.0000 H   0  0  0  0  0  0  0  0  0  0  0  0
    4.2690   -1.1200    0.0000 H   0  0  0  0  0  0  0  0  0  0  0  0
    4.5981    2.3100    0.0000 H   0  0  0  0  0  0  0  0  0  0  0  0
    6.8671    1.6200    0.0000 H   0  0  0  0  0  0  0  0  0  0  0  0
    7.4040   -2.3100    0.0000 H   0  0  0  0  0  0  0  0  0  0  0  0
    2.0000   -0.8100    0.0000 H   0  0  0  0  0  0  0  0  0  0  0  0
  1 11  1  0  0  0  0
  1 12  1  0  0  0  0
  2  8  1  0  0  0  0
  2 21  1  0  0  0  0
  3  9  1  0  0  0  0
  3 22  1  0  0  0  0
  4 13  1  0  0  0  0
  4 23  1  0  0  0  0
  5 14  1  0  0  0  0
  5 24  1  0  0  0  0
  6 13  2  0  0  0  0
  7 14  2  0  0  0  0
  8  9  1  0  0  0  0
  8 10  1  0  0  0  0
  8 15  1  0  0  0  0
  9 11  1  0  0  0  0
  9 16  1  0  0  0  0
 10 12  1  0  0  0  0
 10 17  1  0  0  0  0
 10 18  1  0  0  0  0
 11 13  1  0  0  0  0
 11 19  1  0  0  0  0
 12 14  1  0  0  0  0
 12 20  1  0  0  0  0
M  END
> <PUBCHEM_COMPOUND_CID>
129989173

> <PUBCHEM_COMPOUND_CANONICALIZED>
1

> <PUBCHEM_CACTVS_COMPLEXITY>
250

> <PUBCHEM_CACTVS_HBOND_ACCEPTOR>
7

> <PUBCHEM_CACTVS_HBOND_DONOR>
4

> <PUBCHEM_CACTVS_ROTATABLE_BOND>
2

> <PUBCHEM_CACTVS_SUBSKEYS>
AAADccBgOAAAAAAAAAAAAAAAAAAAAAAAAAAkAAAAAAAAAAAAAAAAGgAACAAACBSggAIACAAABgAIAACQCAIAAAAAAAAAAAFAAAABEBYAAAQCQAAFIAADAAHK7CTAAAAAAAAAAAAAAAAAAAAAAAAAAAAAAA==

> <PUBCHEM_IUPAC_OPENEYE_NAME>
3,4-dihydroxytetrahydropyran-2,6-dicarboxylic acid

> <PUBCHEM_IUPAC_CAS_NAME>
3,4-dihydroxyoxane-2,6-dicarboxylic acid

> <PUBCHEM_IUPAC_NAME_MARKUP>
3,4-dihydroxyoxane-2,6-dicarboxylic acid

> <PUBCHEM_IUPAC_NAME>
3,4-dihydroxyoxane-2,6-dicarboxylic acid

> <PUBCHEM_IUPAC_SYSTEMATIC_NAME>
3,4-bis(oxidanyl)oxane-2,6-dicarboxylic acid

> <PUBCHEM_IUPAC_TRADITIONAL_NAME>
3,4-dihydroxytetrahydropyran-2,6-dicarboxylic acid

> <PUBCHEM_IUPAC_INCHI>
InChI=1S/C7H10O7/c8-2-1-3(6(10)11)14-5(4(2)9)7(12)13/h2-5,8-9H,1H2,(H,10,11)(H,12,13)

> <PUBCHEM_IUPAC_INCHIKEY>
MFNZRYZHGPLCPP-UHFFFAOYSA-N

> <PUBCHEM_XLOGP3_AA>
-1.2

> <PUBCHEM_EXACT_MASS>
206.04265265

> <PUBCHEM_MOLECULAR_FORMULA>
C7H10O7

> <PUBCHEM_MOLECULAR_WEIGHT>
206.15

> <PUBCHEM_OPENEYE_CAN_SMILES>
C1C(C(C(OC1C(=O)O)C(=O)O)O)O

> <PUBCHEM_OPENEYE_ISO_SMILES>
C1C(C(C(OC1C(=O)O)C(=O)O)O)O

> <PUBCHEM_CACTVS_TPSA>
124

> <PUBCHEM_MONOISOTOPIC_WEIGHT>
206.04265265

> <PUBCHEM_TOTAL_CHARGE>
0

> <PUBCHEM_HEAVY_ATOM_COUNT>
14

> <PUBCHEM_ATOM_DEF_STEREO_COUNT>
0

> <PUBCHEM_ATOM_UDEF_STEREO_COUNT>
4

> <PUBCHEM_BOND_DEF_STEREO_COUNT>
0

> <PUBCHEM_BOND_UDEF_STEREO_COUNT>
0

> <PUBCHEM_ISOTOPIC_ATOM_COUNT>
0

> <PUBCHEM_COMPONENT_COUNT>
1

> <PUBCHEM_CACTVS_TAUTO_COUNT>
-1

> <PUBCHEM_COORDINATE_TYPE>
1
5
255

> <PUBCHEM_BONDANNOTATIONS>
11  13  3
12  14  3
8  2  3
9  3  3

$$$$
