 
  -OEChem-10192103332D

 81 82  0     1  0  0  0  0  0999 V2000
    2.3660    8.3660    0.0000 S   0  0  0  0  0  0  0  0  0  0  0  0
    3.3660    8.3660    0.0000 S   0  0  0  0  0  0  0  0  0  0  0  0
    5.0981   -8.3660    0.0000 S   0  0  0  0  0  0  0  0  0  0  0  0
    5.5981   -7.5000    0.0000 S   0  0  0  0  0  0  0  0  0  0  0  0
    4.5981    7.5000    0.0000 O   0  0  0  0  0  0  0  0  0  0  0  0
    2.0000   -6.0000    0.0000 O   0  0  0  0  0  0  0  0  0  0  0  0
    7.1962    2.0000    0.0000 O   0  0  0  0  0  0  0  0  0  0  0  0
    5.4641   -1.0000    0.0000 O   0  0  0  0  0  0  0  0  0  0  0  0
    8.9282    0.0000    0.0000 O   0  0  0  0  0  0  0  0  0  0  0  0
   10.6603    3.0000    0.0000 O   0  0  0  0  0  0  0  0  0  0  0  0
    2.8660    6.5000    0.0000 N   0  0  0  0  0  0  0  0  0  0  0  0
    3.7320   -7.0000    0.0000 N   0  0  0  0  0  0  0  0  0  0  0  0
    5.4641    2.0000    0.0000 N   0  0  0  0  0  0  0  0  0  0  0  0
    6.3301   -2.5000    0.0000 N   0  0  0  0  0  0  0  0  0  0  0  0
    7.1962    0.0000    0.0000 N   0  0  0  0  0  0  0  0  0  0  0  0
    5.4641    6.0000    0.0000 N   0  0  0  0  0  0  0  0  0  0  0  0
    2.8660   -4.5000    0.0000 N   0  0  0  0  0  0  0  0  0  0  0  0
    8.9282    3.0000    0.0000 N   0  0  0  0  0  0  0  0  0  0  0  0
    3.7320    5.0000    0.0000 C   0  0  0  0  0  0  0  0  0  0  0  0
    4.5981   -5.5000    0.0000 C   0  0  0  0  0  0  0  0  0  0  0  0
    3.7320    6.0000    0.0000 C   0  0  3  0  0  0  0  0  0  0  0  0
    3.7320   -6.0000    0.0000 C   0  0  3  0  0  0  0  0  0  0  0  0
    4.5981    4.5000    0.0000 C   0  0  0  0  0  0  0  0  0  0  0  0
    4.5981   -4.5000    0.0000 C   0  0  0  0  0  0  0  0  0  0  0  0
    4.5981    3.5000    0.0000 C   0  0  0  0  0  0  0  0  0  0  0  0
    5.4641   -4.0000    0.0000 C   0  0  0  0  0  0  0  0  0  0  0  0
    5.4641    3.0000    0.0000 C   0  0  0  0  0  0  0  0  0  0  0  0
    5.4641   -3.0000    0.0000 C   0  0  0  0  0  0  0  0  0  0  0  0
    2.8660    7.5000    0.0000 C   0  0  0  0  0  0  0  0  0  0  0  0
    4.5981   -7.5000    0.0000 C   0  0  0  0  0  0  0  0  0  0  0  0
    4.5981    6.5000    0.0000 C   0  0  0  0  0  0  0  0  0  0  0  0
    2.8660   -5.5000    0.0000 C   0  0  0  0  0  0  0  0  0  0  0  0
    6.3301    0.5000    0.0000 C   0  0  0  0  0  0  0  0  0  0  0  0
    7.1962   -1.0000    0.0000 C   0  0  0  0  0  0  0  0  0  0  0  0
    6.3301    1.5000    0.0000 C   0  0  0  0  0  0  0  0  0  0  0  0
    6.3301   -1.5000    0.0000 C   0  0  0  0  0  0  0  0  0  0  0  0
    8.0622    0.5000    0.0000 C   0  0  0  0  0  0  0  0  0  0  0  0
    8.0622    1.5000    0.0000 C   0  0  0  0  0  0  0  0  0  0  0  0
    8.9282    2.0000    0.0000 C   0  0  0  0  0  0  0  0  0  0  0  0
    9.7942    3.5000    0.0000 C   0  0  0  0  0  0  0  0  0  0  0  0
    9.7942    4.5000    0.0000 C   0  0  0  0  0  0  0  0  0  0  0  0
    3.1215    5.1077    0.0000 H   0  0  0  0  0  0  0  0  0  0  0  0
    3.5200    4.4174    0.0000 H   0  0  0  0  0  0  0  0  0  0  0  0
    4.8101   -6.0826    0.0000 H   0  0  0  0  0  0  0  0  0  0  0  0
    5.2087   -5.3923    0.0000 H   0  0  0  0  0  0  0  0  0  0  0  0
    3.7320    6.6200    0.0000 H   0  0  0  0  0  0  0  0  0  0  0  0
    4.2690   -6.3100    0.0000 H   0  0  0  0  0  0  0  0  0  0  0  0
    5.2087    4.3923    0.0000 H   0  0  0  0  0  0  0  0  0  0  0  0
    4.8101    5.0826    0.0000 H   0  0  0  0  0  0  0  0  0  0  0  0
    4.3860   -3.9174    0.0000 H   0  0  0  0  0  0  0  0  0  0  0  0
    3.9875   -4.6077    0.0000 H   0  0  0  0  0  0  0  0  0  0  0  0
    3.9875    3.6077    0.0000 H   0  0  0  0  0  0  0  0  0  0  0  0
    4.3860    2.9174    0.0000 H   0  0  0  0  0  0  0  0  0  0  0  0
    5.6762   -4.5826    0.0000 H   0  0  0  0  0  0  0  0  0  0  0  0
    6.0747   -3.8923    0.0000 H   0  0  0  0  0  0  0  0  0  0  0  0
    6.0747    2.8923    0.0000 H   0  0  0  0  0  0  0  0  0  0  0  0
    5.6762    3.5826    0.0000 H   0  0  0  0  0  0  0  0  0  0  0  0
    5.2520   -2.4174    0.0000 H   0  0  0  0  0  0  0  0  0  0  0  0
    4.8535   -3.1077    0.0000 H   0  0  0  0  0  0  0  0  0  0  0  0
    2.3291    6.1900    0.0000 H   0  0  0  0  0  0  0  0  0  0  0  0
    3.1951   -7.3100    0.0000 H   0  0  0  0  0  0  0  0  0  0  0  0
    3.4649    7.3395    0.0000 H   0  0  0  0  0  0  0  0  0  0  0  0
    4.1597   -7.9384    0.0000 H   0  0  0  0  0  0  0  0  0  0  0  0
    4.9272    1.6900    0.0000 H   0  0  0  0  0  0  0  0  0  0  0  0
    6.8671   -2.8100    0.0000 H   0  0  0  0  0  0  0  0  0  0  0  0
    5.7196    0.6077    0.0000 H   0  0  0  0  0  0  0  0  0  0  0  0
    6.1181   -0.0826    0.0000 H   0  0  0  0  0  0  0  0  0  0  0  0
    7.4082   -1.5826    0.0000 H   0  0  0  0  0  0  0  0  0  0  0  0
    7.8067   -0.8923    0.0000 H   0  0  0  0  0  0  0  0  0  0  0  0
    7.8501    2.0826    0.0000 H   0  0  0  0  0  0  0  0  0  0  0  0
    7.4516    1.3923    0.0000 H   0  0  0  0  0  0  0  0  0  0  0  0
    6.0010    6.3100    0.0000 H   0  0  0  0  0  0  0  0  0  0  0  0
    5.4641    5.3800    0.0000 H   0  0  0  0  0  0  0  0  0  0  0  0
    2.3291   -4.1900    0.0000 H   0  0  0  0  0  0  0  0  0  0  0  0
    3.4030   -4.1900    0.0000 H   0  0  0  0  0  0  0  0  0  0  0  0
    9.1403    1.4174    0.0000 H   0  0  0  0  0  0  0  0  0  0  0  0
    9.5388    2.1077    0.0000 H   0  0  0  0  0  0  0  0  0  0  0  0
    8.3913    3.3100    0.0000 H   0  0  0  0  0  0  0  0  0  0  0  0
   10.4142    4.5000    0.0000 H   0  0  0  0  0  0  0  0  0  0  0  0
    9.7942    5.1200    0.0000 H   0  0  0  0  0  0  0  0  0  0  0  0
    9.1742    4.5000    0.0000 H   0  0  0  0  0  0  0  0  0  0  0  0
  1  2  1  0  0  0  0
  1 29  1  0  0  0  0
  2 29  1  0  0  0  0
  3  4  1  0  0  0  0
  3 30  1  0  0  0  0
  4 30  1  0  0  0  0
  5 31  2  0  0  0  0
  6 32  2  0  0  0  0
  7 35  2  0  0  0  0
  8 36  2  0  0  0  0
  9 37  2  0  0  0  0
 10 40  2  0  0  0  0
 11 21  1  0  0  0  0
 11 29  1  0  0  0  0
 11 60  1  0  0  0  0
 12 22  1  0  0  0  0
 12 30  1  0  0  0  0
 12 61  1  0  0  0  0
 13 27  1  0  0  0  0
 13 35  1  0  0  0  0
 13 64  1  0  0  0  0
 14 28  1  0  0  0  0
 14 36  1  0  0  0  0
 14 65  1  0  0  0  0
 15 33  1  0  0  0  0
 15 34  1  0  0  0  0
 15 37  1  0  0  0  0
 16 31  1  0  0  0  0
 16 72  1  0  0  0  0
 16 73  1  0  0  0  0
 17 32  1  0  0  0  0
 17 74  1  0  0  0  0
 17 75  1  0  0  0  0
 18 39  1  0  0  0  0
 18 40  1  0  0  0  0
 18 78  1  0  0  0  0
 19 21  1  0  0  0  0
 19 23  1  0  0  0  0
 19 42  1  0  0  0  0
 19 43  1  0  0  0  0
 20 22  1  0  0  0  0
 20 24  1  0  0  0  0
 20 44  1  0  0  0  0
 20 45  1  0  0  0  0
 21 31  1  0  0  0  0
 21 46  1  0  0  0  0
 22 32  1  0  0  0  0
 22 47  1  0  0  0  0
 23 25  1  0  0  0  0
 23 48  1  0  0  0  0
 23 49  1  0  0  0  0
 24 26  1  0  0  0  0
 24 50  1  0  0  0  0
 24 51  1  0  0  0  0
 25 27  1  0  0  0  0
 25 52  1  0  0  0  0
 25 53  1  0  0  0  0
 26 28  1  0  0  0  0
 26 54  1  0  0  0  0
 26 55  1  0  0  0  0
 27 56  1  0  0  0  0
 27 57  1  0  0  0  0
 28 58  1  0  0  0  0
 28 59  1  0  0  0  0
 29 62  1  0  0  0  0
 30 63  1  0  0  0  0
 33 35  1  0  0  0  0
 33 66  1  0  0  0  0
 33 67  1  0  0  0  0
 34 36  1  0  0  0  0
 34 68  1  0  0  0  0
 34 69  1  0  0  0  0
 37 38  1  0  0  0  0
 38 39  1  0  0  0  0
 38 70  1  0  0  0  0
 38 71  1  0  0  0  0
 39 76  1  0  0  0  0
 39 77  1  0  0  0  0
 40 41  1  0  0  0  0
 41 79  1  0  0  0  0
 41 80  1  0  0  0  0
 41 81  1  0  0  0  0
M  END
> <PUBCHEM_COMPOUND_CID>
57853576

> <PUBCHEM_COMPOUND_CANONICALIZED>
1

> <PUBCHEM_CACTVS_COMPLEXITY>
869

> <PUBCHEM_CACTVS_HBOND_ACCEPTOR>
12

> <PUBCHEM_CACTVS_HBOND_DONOR>
7

> <PUBCHEM_CACTVS_ROTATABLE_BOND>
23

> <PUBCHEM_CACTVS_SUBSKEYS>
AAADcfB7+ABwAAAAAAAAAAAAEiQAAAAAAAAAAAAAAAAAAAAAAAAAHgQQAAAACCjBgASCAAPAAAAIAAEQEAAAAAAAAAAAAIGIAAAAQBoAwCAUAAAAFgCAAAEYCAAAAAAAAAAAAAAAAAAAAAAAAAAAAAAAAA==

> <PUBCHEM_IUPAC_OPENEYE_NAME>
6-[[2-[3-acetamidopropanoyl-[2-[[6-amino-5-(dithiiran-3-ylamino)-6-oxo-hexyl]amino]-2-oxo-ethyl]amino]acetyl]amino]-2-(dithiiran-3-ylamino)hexanamide

> <PUBCHEM_IUPAC_CAS_NAME>
6-[[2-[(3-acetamido-1-oxopropyl)-[2-[[6-amino-5-(3-dithiiranylamino)-6-oxohexyl]amino]-2-oxoethyl]amino]-1-oxoethyl]amino]-2-(3-dithiiranylamino)hexanamide

> <PUBCHEM_IUPAC_NAME_MARKUP>
6-[[2-[3-acetamidopropanoyl-[2-[[6-amino-5-(dithiiran-3-ylamino)-6-oxohexyl]amino]-2-oxoethyl]amino]acetyl]amino]-2-(dithiiran-3-ylamino)hexanamide

> <PUBCHEM_IUPAC_NAME>
6-[[2-[3-acetamidopropanoyl-[2-[[6-amino-5-(dithiiran-3-ylamino)-6-oxohexyl]amino]-2-oxoethyl]amino]acetyl]amino]-2-(dithiiran-3-ylamino)hexanamide

> <PUBCHEM_IUPAC_SYSTEMATIC_NAME>
6-[2-[3-acetamidopropanoyl-[2-[[6-azanyl-5-(1,2-dithiiran-3-ylamino)-6-oxidanylidene-hexyl]amino]-2-oxidanylidene-ethyl]amino]ethanoylamino]-2-(1,2-dithiiran-3-ylamino)hexanamide

> <PUBCHEM_IUPAC_TRADITIONAL_NAME>
6-[[2-[3-acetamidopropanoyl-[2-[[6-amino-5-(dithiiran-3-ylamino)-6-keto-hexyl]amino]-2-keto-ethyl]amino]acetyl]amino]-2-(dithiiran-3-ylamino)hexanamide

> <PUBCHEM_IUPAC_INCHI>
InChI=1S/C23H40N8O6S4/c1-14(32)26-11-8-19(35)31(12-17(33)27-9-4-2-6-15(20(24)36)29-22-38-39-22)13-18(34)28-10-5-3-7-16(21(25)37)30-23-40-41-23/h15-16,22-23,29-30H,2-13H2,1H3,(H2,24,36)(H2,25,37)(H,26,32)(H,27,33)(H,28,34)

> <PUBCHEM_IUPAC_INCHIKEY>
FMDWSESDFMQHDX-UHFFFAOYSA-N

> <PUBCHEM_XLOGP3_AA>
-1.7

> <PUBCHEM_EXACT_MASS>
652.19536572

> <PUBCHEM_MOLECULAR_FORMULA>
C23H40N8O6S4

> <PUBCHEM_MOLECULAR_WEIGHT>
652.9

> <PUBCHEM_OPENEYE_CAN_SMILES>
CC(=O)NCCC(=O)N(CC(=O)NCCCCC(C(=O)N)NC1SS1)CC(=O)NCCCCC(C(=O)N)NC2SS2

> <PUBCHEM_OPENEYE_ISO_SMILES>
CC(=O)NCCC(=O)N(CC(=O)NCCCCC(C(=O)N)NC1SS1)CC(=O)NCCCCC(C(=O)N)NC2SS2

> <PUBCHEM_CACTVS_TPSA>
319

> <PUBCHEM_MONOISOTOPIC_WEIGHT>
652.19536572

> <PUBCHEM_TOTAL_CHARGE>
0

> <PUBCHEM_HEAVY_ATOM_COUNT>
41

> <PUBCHEM_ATOM_DEF_STEREO_COUNT>
0

> <PUBCHEM_ATOM_UDEF_STEREO_COUNT>
2

> <PUBCHEM_BOND_DEF_STEREO_COUNT>
0

> <PUBCHEM_BOND_UDEF_STEREO_COUNT>
0

> <PUBCHEM_ISOTOPIC_ATOM_COUNT>
0

> <PUBCHEM_COMPONENT_COUNT>
1

> <PUBCHEM_CACTVS_TAUTO_COUNT>
-1

> <PUBCHEM_COORDINATE_TYPE>
1
5
255

> <PUBCHEM_BONDANNOTATIONS>
21  19  3
22  20  3

$$$$
