 
  -OEChem-10192103502D

 31 31  0     0  0  0  0  0  0999 V2000
    2.8660    0.5670    0.0000 S   0  0  0  0  0  0  0  0  0  0  0  0
    3.7320   -0.9330    0.0000 S   0  0  0  0  0  0  0  0  0  0  0  0
    5.2320    0.9330    0.0000 S   0  0  0  0  0  0  0  0  0  0  0  0
    2.3660    1.4330    0.0000 O   0  0  0  0  0  0  0  0  0  0  0  0
    3.3660    1.4330    0.0000 O   0  0  0  0  0  0  0  0  0  0  0  0
    4.2320   -1.7990    0.0000 O   0  0  0  0  0  0  0  0  0  0  0  0
    4.7320   -0.9330    0.0000 O   0  0  0  0  0  0  0  0  0  0  0  0
    6.7320    0.0670    0.0000 O   0  0  0  0  0  0  0  0  0  0  0  0
    3.7320    0.0670    0.0000 C   0  0  0  0  0  0  0  0  0  0  0  0
    2.0000    0.0670    0.0000 C   0  0  0  0  0  0  0  0  0  0  0  0
    2.8660   -1.4330    0.0000 C   0  0  0  0  0  0  0  0  0  0  0  0
    2.0000   -0.9330    0.0000 C   0  0  0  0  0  0  0  0  0  0  0  0
    4.7320    0.0670    0.0000 C   0  0  0  0  0  0  0  0  0  0  0  0
    4.2320    0.9330    0.0000 C   0  0  0  0  0  0  0  0  0  0  0  0
    6.2320    0.9330    0.0000 C   0  0  0  0  0  0  0  0  0  0  0  0
    6.7320    1.7990    0.0000 C   0  0  0  0  0  0  0  0  0  0  0  0
    7.7320    1.7990    0.0000 C   0  0  0  0  0  0  0  0  0  0  0  0
    1.7880    0.6496    0.0000 H   0  0  0  0  0  0  0  0  0  0  0  0
    1.3894   -0.0407    0.0000 H   0  0  0  0  0  0  0  0  0  0  0  0
    2.4675   -1.9080    0.0000 H   0  0  0  0  0  0  0  0  0  0  0  0
    3.2646   -1.9080    0.0000 H   0  0  0  0  0  0  0  0  0  0  0  0
    1.3894   -0.8254    0.0000 H   0  0  0  0  0  0  0  0  0  0  0  0
    1.7880   -1.5156    0.0000 H   0  0  0  0  0  0  0  0  0  0  0  0
    4.6244   -0.5436    0.0000 H   0  0  0  0  0  0  0  0  0  0  0  0
    5.3147   -0.1451    0.0000 H   0  0  0  0  0  0  0  0  0  0  0  0
    4.7690    0.6230    0.0000 H   0  0  0  0  0  0  0  0  0  0  0  0
    4.5420    1.4700    0.0000 H   0  0  0  0  0  0  0  0  0  0  0  0
    3.6951    1.2430    0.0000 H   0  0  0  0  0  0  0  0  0  0  0  0
    6.4220    2.3360    0.0000 H   0  0  0  0  0  0  0  0  0  0  0  0
    8.0420    1.2621    0.0000 H   0  0  0  0  0  0  0  0  0  0  0  0
    8.0420    2.3360    0.0000 H   0  0  0  0  0  0  0  0  0  0  0  0
  1  4  2  0  0  0  0
  1  5  2  0  0  0  0
  1  9  1  0  0  0  0
  1 10  1  0  0  0  0
  2  6  2  0  0  0  0
  2  7  2  0  0  0  0
  2  9  1  0  0  0  0
  2 11  1  0  0  0  0
  3 13  1  0  0  0  0
  3 15  1  0  0  0  0
  8 15  2  0  0  0  0
  9 13  1  0  0  0  0
  9 14  1  0  0  0  0
 10 12  1  0  0  0  0
 10 18  1  0  0  0  0
 10 19  1  0  0  0  0
 11 12  1  0  0  0  0
 11 20  1  0  0  0  0
 11 21  1  0  0  0  0
 12 22  1  0  0  0  0
 12 23  1  0  0  0  0
 13 24  1  0  0  0  0
 13 25  1  0  0  0  0
 14 26  1  0  0  0  0
 14 27  1  0  0  0  0
 14 28  1  0  0  0  0
 15 16  1  0  0  0  0
 16 17  2  0  0  0  0
 16 29  1  0  0  0  0
 17 30  1  0  0  0  0
 17 31  1  0  0  0  0
M  END
> <PUBCHEM_COMPOUND_CID>
58205586

> <PUBCHEM_COMPOUND_CANONICALIZED>
1

> <PUBCHEM_CACTVS_COMPLEXITY>
484

> <PUBCHEM_CACTVS_HBOND_ACCEPTOR>
6

> <PUBCHEM_CACTVS_HBOND_DONOR>
0

> <PUBCHEM_CACTVS_ROTATABLE_BOND>
4

> <PUBCHEM_CACTVS_SUBSKEYS>
AAADccBwOABgAAAAAAAAAAAAAAAAAAAAAAAkAAAAAAAAAAAAAAAAGgQAAAAACACEwACCAAAAAAqIACBSAHBAAQAAABAIAAAAAEAAAAAgAAAAAAAAAAAgAIAAAAAAAAAAAAAAAAAAAAAAAAAAAAAAAAAAAA==

> <PUBCHEM_IUPAC_OPENEYE_NAME>
S-[(2-methyl-1,1,3,3-tetraoxo-1,3-dithian-2-yl)methyl] prop-2-enethioate

> <PUBCHEM_IUPAC_CAS_NAME>
2-propenethioic acid S-[(2-methyl-1,1,3,3-tetraoxo-1,3-dithian-2-yl)methyl] ester

> <PUBCHEM_IUPAC_NAME_MARKUP>
<I>S</I>-[(2-methyl-1,1,3,3-tetraoxo-1,3-dithian-2-yl)methyl] prop-2-enethioate

> <PUBCHEM_IUPAC_NAME>
S-[(2-methyl-1,1,3,3-tetraoxo-1,3-dithian-2-yl)methyl] prop-2-enethioate

> <PUBCHEM_IUPAC_SYSTEMATIC_NAME>
S-[[2-methyl-1,1,3,3-tetrakis(oxidanylidene)-1,3-dithian-2-yl]methyl] prop-2-enethioate

> <PUBCHEM_IUPAC_TRADITIONAL_NAME>
prop-2-enethioic acid S-[(1,1,3,3-tetraketo-2-methyl-1,3-dithian-2-yl)methyl] ester

> <PUBCHEM_IUPAC_INCHI>
InChI=1S/C9H14O5S3/c1-3-8(10)15-7-9(2)16(11,12)5-4-6-17(9,13)14/h3H,1,4-7H2,2H3

> <PUBCHEM_IUPAC_INCHIKEY>
IBLHSMJQSXRLSD-UHFFFAOYSA-N

> <PUBCHEM_XLOGP3_AA>
0.5

> <PUBCHEM_EXACT_MASS>
298.00033706

> <PUBCHEM_MOLECULAR_FORMULA>
C9H14O5S3

> <PUBCHEM_MOLECULAR_WEIGHT>
298.4

> <PUBCHEM_OPENEYE_CAN_SMILES>
CC1(S(=O)(=O)CCCS1(=O)=O)CSC(=O)C=C

> <PUBCHEM_OPENEYE_ISO_SMILES>
CC1(S(=O)(=O)CCCS1(=O)=O)CSC(=O)C=C

> <PUBCHEM_CACTVS_TPSA>
127

> <PUBCHEM_MONOISOTOPIC_WEIGHT>
298.00033706

> <PUBCHEM_TOTAL_CHARGE>
0

> <PUBCHEM_HEAVY_ATOM_COUNT>
17

> <PUBCHEM_ATOM_DEF_STEREO_COUNT>
0

> <PUBCHEM_ATOM_UDEF_STEREO_COUNT>
0

> <PUBCHEM_BOND_DEF_STEREO_COUNT>
0

> <PUBCHEM_BOND_UDEF_STEREO_COUNT>
0

> <PUBCHEM_ISOTOPIC_ATOM_COUNT>
0

> <PUBCHEM_COMPONENT_COUNT>
1

> <PUBCHEM_CACTVS_TAUTO_COUNT>
-1

> <PUBCHEM_COORDINATE_TYPE>
1
5
255

$$$$
