 
  -OEChem-10192104112D

 41 43  0     1  0  0  0  0  0999 V2000
    2.0000   -1.7988    0.0000 O   0  0  0  0  0  0  0  0  0  0  0  0
    5.0363   -1.9907    0.0000 O   0  0  0  0  0  0  0  0  0  0  0  0
    6.4185   -0.4791    0.0000 O   0  0  0  0  0  0  0  0  0  0  0  0
    5.7856    1.4689    0.0000 O   0  0  0  0  0  0  0  0  0  0  0  0
    6.6896   -1.4746    0.0000 O   0  0  0  0  0  0  0  0  0  0  0  0
    6.7852    1.2137    0.0000 O   0  0  0  0  0  0  0  0  0  0  0  0
    4.4940    2.6229    0.0000 O   0  0  0  0  0  0  0  0  0  0  0  0
    3.4138    0.1472    0.0000 N   0  0  3  0  0  0  0  0  0  0  0  0
    2.9138   -1.3917    0.0000 C   0  0  2  0  0  0  0  0  0  0  0  0
    3.7229   -0.8039    0.0000 C   0  0  2  0  0  0  0  0  0  0  0  0
    2.1048   -0.8039    0.0000 C   0  0  2  0  0  0  0  0  0  0  0  0
    2.4138    0.1472    0.0000 C   0  0  0  0  0  0  0  0  0  0  0  0
    4.7383   -1.0361    0.0000 C   0  0  2  0  0  0  0  0  0  0  0  0
    4.0988    0.9319    0.0000 C   0  0  0  0  0  0  0  0  0  0  0  0
    5.4412   -0.2675    0.0000 C   0  0  2  0  0  0  0  0  0  0  0  0
    5.1193    0.7232    0.0000 C   0  0  1  0  0  0  0  0  0  0  0  0
    6.0120   -2.2099    0.0000 C   0  0  0  0  0  0  0  0  0  0  0  0
    7.0905    0.2614    0.0000 C   0  0  0  0  0  0  0  0  0  0  0  0
    5.4729    2.4188    0.0000 C   0  0  0  0  0  0  0  0  0  0  0  0
    6.3100   -3.1645    0.0000 C   0  0  0  0  0  0  0  0  0  0  0  0
    8.0679    0.0497    0.0000 C   0  0  0  0  0  0  0  0  0  0  0  0
    6.1392    3.1645    0.0000 C   0  0  0  0  0  0  0  0  0  0  0  0
    3.2239   -1.9286    0.0000 H   0  0  0  0  0  0  0  0  0  0  0  0
    3.8932   -1.6367    0.0000 H   0  0  0  0  0  0  0  0  0  0  0  0
    1.4984   -0.6749    0.0000 H   0  0  0  0  0  0  0  0  0  0  0  0
    2.4786    0.7638    0.0000 H   0  0  0  0  0  0  0  0  0  0  0  0
    1.8074    0.2761    0.0000 H   0  0  0  0  0  0  0  0  0  0  0  0
    4.3172   -1.4913    0.0000 H   0  0  0  0  0  0  0  0  0  0  0  0
    4.3252    1.5091    0.0000 H   0  0  0  0  0  0  0  0  0  0  0  0
    3.5688    1.2537    0.0000 H   0  0  0  0  0  0  0  0  0  0  0  0
    5.6294   -0.8582    0.0000 H   0  0  0  0  0  0  0  0  0  0  0  0
    5.7260    0.5955    0.0000 H   0  0  0  0  0  0  0  0  0  0  0  0
    5.7181   -3.3492    0.0000 H   0  0  0  0  0  0  0  0  0  0  0  0
    6.4947   -3.7563    0.0000 H   0  0  0  0  0  0  0  0  0  0  0  0
    6.9018   -2.9797    0.0000 H   0  0  0  0  0  0  0  0  0  0  0  0
    7.9366   -0.5562    0.0000 H   0  0  0  0  0  0  0  0  0  0  0  0
    8.6738   -0.0815    0.0000 H   0  0  0  0  0  0  0  0  0  0  0  0
    8.1991    0.6557    0.0000 H   0  0  0  0  0  0  0  0  0  0  0  0
    6.6015    2.7514    0.0000 H   0  0  0  0  0  0  0  0  0  0  0  0
    6.5522    3.6268    0.0000 H   0  0  0  0  0  0  0  0  0  0  0  0
    5.6768    3.5776    0.0000 H   0  0  0  0  0  0  0  0  0  0  0  0
  9  1  1  1  0  0  0
 11  1  1  1  0  0  0
 13  2  1  6  0  0  0
  2 17  1  0  0  0  0
 15  3  1  6  0  0  0
  3 18  1  0  0  0  0
 16  4  1  6  0  0  0
  4 19  1  0  0  0  0
  5 17  2  0  0  0  0
  6 18  2  0  0  0  0
  7 19  2  0  0  0  0
  8 10  1  0  0  0  0
  8 12  1  0  0  0  0
  8 14  1  0  0  0  0
  9 10  1  0  0  0  0
  9 11  1  0  0  0  0
  9 23  1  0  0  0  0
 10 13  1  0  0  0  0
 10 24  1  6  0  0  0
 11 12  1  0  0  0  0
 11 25  1  0  0  0  0
 12 26  1  0  0  0  0
 12 27  1  0  0  0  0
 13 15  1  0  0  0  0
 13 28  1  0  0  0  0
 14 16  1  0  0  0  0
 14 29  1  0  0  0  0
 14 30  1  0  0  0  0
 15 16  1  0  0  0  0
 15 31  1  0  0  0  0
 16 32  1  0  0  0  0
 17 20  1  0  0  0  0
 18 21  1  0  0  0  0
 19 22  1  0  0  0  0
 20 33  1  0  0  0  0
 20 34  1  0  0  0  0
 20 35  1  0  0  0  0
 21 36  1  0  0  0  0
 21 37  1  0  0  0  0
 21 38  1  0  0  0  0
 22 39  1  0  0  0  0
 22 40  1  0  0  0  0
 22 41  1  0  0  0  0
M  END
> <PUBCHEM_COMPOUND_CID>
10064153

> <PUBCHEM_COMPOUND_CANONICALIZED>
1

> <PUBCHEM_CACTVS_COMPLEXITY>
507

> <PUBCHEM_CACTVS_HBOND_ACCEPTOR>
8

> <PUBCHEM_CACTVS_HBOND_DONOR>
0

> <PUBCHEM_CACTVS_ROTATABLE_BOND>
6

> <PUBCHEM_CACTVS_SUBSKEYS>
AAADceByOAAAAAAAAAAAAAAAEgAAAWAAAAAsWAAAAAAAAFgAAAAAHgAAAAAACDzhgAYCCAMABAAIAACQCAAAAAAAAAAAAAAIAAADAAIAgAAHAAAHAACSAAHw8K4AAAAAAAAAAAAAAAAAAAAAAAAAAAAAAA==

> <PUBCHEM_IUPAC_OPENEYE_NAME>
[(1aS,5S,6S,7R,7aR,7bR)-6,7-diacetoxy-1a,2,4,5,6,7,7a,7b-octahydrooxireno[2,3-a]indolizin-5-yl] acetate

> <PUBCHEM_IUPAC_CAS_NAME>
acetic acid [(1aS,5S,6S,7R,7aR,7bR)-6,7-diacetyloxy-1a,2,4,5,6,7,7a,7b-octahydrooxireno[2,3-a]indolizin-5-yl] ester

> <PUBCHEM_IUPAC_NAME_MARKUP>
[(1<I>a</I><I>S</I>,5<I>S</I>,6<I>S</I>,7<I>R</I>,7<I>a</I><I>R</I>,7<I>b</I><I>R</I>)-6,7-diacetyloxy-1<I>a</I>,2,4,5,6,7,7<I>a</I>,7<I>b</I>-octahydrooxireno[2,3-a]indolizin-5-yl] acetate

> <PUBCHEM_IUPAC_NAME>
[(1aS,5S,6S,7R,7aR,7bR)-6,7-diacetyloxy-1a,2,4,5,6,7,7a,7b-octahydrooxireno[2,3-a]indolizin-5-yl] acetate

> <PUBCHEM_IUPAC_SYSTEMATIC_NAME>
[(1aS,5S,6S,7R,7aR,7bR)-6,7-diacetyloxy-1a,2,4,5,6,7,7a,7b-octahydrooxireno[2,3-a]indolizin-5-yl] ethanoate

> <PUBCHEM_IUPAC_TRADITIONAL_NAME>
acetic acid [(1aS,5S,6S,7R,7aR,7bR)-6,7-diacetoxy-1a,2,4,5,6,7,7a,7b-octahydrooxiren[2,3-a]indolizin-5-yl] ester

> <PUBCHEM_IUPAC_INCHI>
InChI=1S/C14H19NO7/c1-6(16)19-10-5-15-4-9-12(22-9)11(15)14(21-8(3)18)13(10)20-7(2)17/h9-14H,4-5H2,1-3H3/t9-,10-,11+,12-,13-,14+/m0/s1

> <PUBCHEM_IUPAC_INCHIKEY>
ADTLQIZKAOJXFT-KYTCRMMBSA-N

> <PUBCHEM_XLOGP3_AA>
-0.5

> <PUBCHEM_EXACT_MASS>
313.11615195

> <PUBCHEM_MOLECULAR_FORMULA>
C14H19NO7

> <PUBCHEM_MOLECULAR_WEIGHT>
313.30

> <PUBCHEM_OPENEYE_CAN_SMILES>
CC(=O)OC1CN2CC3C(C2C(C1OC(=O)C)OC(=O)C)O3

> <PUBCHEM_OPENEYE_ISO_SMILES>
CC(=O)O[C@H]1CN2C[C@H]3[C@@H]([C@@H]2[C@H]([C@H]1OC(=O)C)OC(=O)C)O3

> <PUBCHEM_CACTVS_TPSA>
94.7

> <PUBCHEM_MONOISOTOPIC_WEIGHT>
313.11615195

> <PUBCHEM_TOTAL_CHARGE>
0

> <PUBCHEM_HEAVY_ATOM_COUNT>
22

> <PUBCHEM_ATOM_DEF_STEREO_COUNT>
6

> <PUBCHEM_ATOM_UDEF_STEREO_COUNT>
0

> <PUBCHEM_BOND_DEF_STEREO_COUNT>
0

> <PUBCHEM_BOND_UDEF_STEREO_COUNT>
0

> <PUBCHEM_ISOTOPIC_ATOM_COUNT>
0

> <PUBCHEM_COMPONENT_COUNT>
1

> <PUBCHEM_CACTVS_TAUTO_COUNT>
-1

> <PUBCHEM_COORDINATE_TYPE>
1
5
255

> <PUBCHEM_BONDANNOTATIONS>
11  1  5
9  1  5
10  24  6
13  2  6
15  3  6
16  4  6

$$$$
