 
  -OEChem-10192104412D

 53 54  0     1  0  0  0  0  0999 V2000
    5.5000   -2.2694    0.0000 P   0  0  3  0  0  0  0  0  0  0  0  0
    6.0570    1.1816    0.0000 O   0  0  0  0  0  0  0  0  0  0  0  0
    7.9538   -0.5784    0.0000 O   0  0  0  0  0  0  0  0  0  0  0  0
    5.5000   -1.2694    0.0000 O   0  0  0  0  0  0  0  0  0  0  0  0
    5.5000   -3.2694    0.0000 O   0  0  0  0  0  0  0  0  0  0  0  0
    8.5981    2.7694    0.0000 O   0  0  0  0  0  0  0  0  0  0  0  0
    4.5000   -2.2694    0.0000 O   0  0  0  0  0  0  0  0  0  0  0  0
    6.5000   -2.2694    0.0000 O   0  0  0  0  0  0  0  0  0  0  0  0
    6.8660    5.7694    0.0000 O   0  0  0  0  0  0  0  0  0  0  0  0
    6.8660    2.7694    0.0000 N   0  0  0  0  0  0  0  0  0  0  0  0
    7.7320    4.2694    0.0000 N   0  0  0  0  0  0  0  0  0  0  0  0
    3.0000   -1.4034    0.0000 N   0  3  0  0  0  0  0  0  0  0  0  0
    3.7680   -5.2694    0.0000 N   0  3  0  0  0  0  0  0  0  0  0  0
    6.3660    0.2306    0.0000 C   0  0  2  0  0  0  0  0  0  0  0  0
    7.3660    0.2306    0.0000 C   0  0  1  0  0  0  0  0  0  0  0  0
    7.6750    1.1816    0.0000 C   0  0  0  0  0  0  0  0  0  0  0  0
    6.8660    1.7694    0.0000 C   0  0  1  0  0  0  0  0  0  0  0  0
    5.4150   -0.0784    0.0000 C   0  0  0  0  0  0  0  0  0  0  0  0
    6.3660   -0.7694    0.0000 C   0  0  0  0  0  0  0  0  0  0  0  0
    4.6718    0.5907    0.0000 C   0  0  0  0  0  0  0  0  0  0  0  0
    6.0000    3.2694    0.0000 C   0  0  0  0  0  0  0  0  0  0  0  0
    7.7320    3.2694    0.0000 C   0  0  0  0  0  0  0  0  0  0  0  0
    6.0000    4.2694    0.0000 C   0  0  0  0  0  0  0  0  0  0  0  0
    6.8660    4.7694    0.0000 C   0  0  0  0  0  0  0  0  0  0  0  0
    5.1340    4.7694    0.0000 C   0  0  0  0  0  0  0  0  0  0  0  0
    4.6340   -3.7694    0.0000 C   0  0  0  0  0  0  0  0  0  0  0  0
    4.0000   -1.4034    0.0000 C   0  0  0  0  0  0  0  0  0  0  0  0
    4.6340   -4.7694    0.0000 C   0  0  0  0  0  0  0  0  0  0  0  0
    2.0000   -1.4034    0.0000 C   0  5  0  0  0  0  0  0  0  0  0  0
    2.9019   -5.7694    0.0000 C   0  5  0  0  0  0  0  0  0  0  0  0
    7.0846   -0.3218    0.0000 H   0  0  0  0  0  0  0  0  0  0  0  0
    8.2414    0.9295    0.0000 H   0  0  0  0  0  0  0  0  0  0  0  0
    7.9850    1.7186    0.0000 H   0  0  0  0  0  0  0  0  0  0  0  0
    7.4184    2.0509    0.0000 H   0  0  0  0  0  0  0  0  0  0  0  0
    4.9264   -0.4601    0.0000 H   0  0  0  0  0  0  0  0  0  0  0  0
    5.7060   -0.6259    0.0000 H   0  0  0  0  0  0  0  0  0  0  0  0
    6.5781   -1.3520    0.0000 H   0  0  0  0  0  0  0  0  0  0  0  0
    6.9766   -0.6618    0.0000 H   0  0  0  0  0  0  0  0  0  0  0  0
    5.0867    1.0514    0.0000 H   0  0  0  0  0  0  0  0  0  0  0  0
    4.2111    1.0056    0.0000 H   0  0  0  0  0  0  0  0  0  0  0  0
    4.2570    0.1299    0.0000 H   0  0  0  0  0  0  0  0  0  0  0  0
    8.5704   -0.5136    0.0000 H   0  0  0  0  0  0  0  0  0  0  0  0
    5.4631    2.9594    0.0000 H   0  0  0  0  0  0  0  0  0  0  0  0
    8.2690    4.5794    0.0000 H   0  0  0  0  0  0  0  0  0  0  0  0
    5.4440    5.3064    0.0000 H   0  0  0  0  0  0  0  0  0  0  0  0
    4.5970    5.0794    0.0000 H   0  0  0  0  0  0  0  0  0  0  0  0
    4.8240    4.2325    0.0000 H   0  0  0  0  0  0  0  0  0  0  0  0
    4.4219   -3.1868    0.0000 H   0  0  0  0  0  0  0  0  0  0  0  0
    4.0234   -3.8771    0.0000 H   0  0  0  0  0  0  0  0  0  0  0  0
    4.5826   -1.1913    0.0000 H   0  0  0  0  0  0  0  0  0  0  0  0
    3.8923   -0.7928    0.0000 H   0  0  0  0  0  0  0  0  0  0  0  0
    4.8460   -5.3520    0.0000 H   0  0  0  0  0  0  0  0  0  0  0  0
    5.2446   -4.6618    0.0000 H   0  0  0  0  0  0  0  0  0  0  0  0
  1  4  1  0  0  0  0
  1  5  1  0  0  0  0
  1  7  1  0  0  0  0
  1  8  2  0  0  0  0
  2 14  1  0  0  0  0
  2 17  1  0  0  0  0
 15  3  1  1  0  0  0
  3 42  1  0  0  0  0
  4 19  1  0  0  0  0
  5 26  1  0  0  0  0
  6 22  2  0  0  0  0
  7 27  1  0  0  0  0
  9 24  2  0  0  0  0
 17 10  1  1  0  0  0
 10 21  1  0  0  0  0
 10 22  1  0  0  0  0
 11 22  1  0  0  0  0
 11 24  1  0  0  0  0
 11 44  1  0  0  0  0
 12 27  1  0  0  0  0
 12 29  3  0  0  0  0
 13 28  1  0  0  0  0
 13 30  3  0  0  0  0
 14 15  1  0  0  0  0
 14 18  1  6  0  0  0
 14 19  1  0  0  0  0
 15 16  1  0  0  0  0
 15 31  1  0  0  0  0
 16 17  1  0  0  0  0
 16 32  1  0  0  0  0
 16 33  1  0  0  0  0
 17 34  1  0  0  0  0
 18 20  1  0  0  0  0
 18 35  1  0  0  0  0
 18 36  1  0  0  0  0
 19 37  1  0  0  0  0
 19 38  1  0  0  0  0
 20 39  1  0  0  0  0
 20 40  1  0  0  0  0
 20 41  1  0  0  0  0
 21 23  2  0  0  0  0
 21 43  1  0  0  0  0
 23 24  1  0  0  0  0
 23 25  1  0  0  0  0
 25 45  1  0  0  0  0
 25 46  1  0  0  0  0
 25 47  1  0  0  0  0
 26 28  1  0  0  0  0
 26 48  1  0  0  0  0
 26 49  1  0  0  0  0
 27 50  1  0  0  0  0
 27 51  1  0  0  0  0
 28 52  1  0  0  0  0
 28 53  1  0  0  0  0
M  CHG  4  12   1  13   1  29  -1  30  -1
M  END
> <PUBCHEM_COMPOUND_CID>
88572302

> <PUBCHEM_COMPOUND_CANONICALIZED>
1

> <PUBCHEM_CACTVS_COMPLEXITY>
858

> <PUBCHEM_CACTVS_HBOND_ACCEPTOR>
10

> <PUBCHEM_CACTVS_HBOND_DONOR>
2

> <PUBCHEM_CACTVS_ROTATABLE_BOND>
10

> <PUBCHEM_CACTVS_SUBSKEYS>
AAADceB7vAIAAAAAAAAAAAAAAAAAASAAAAAgAAAAAAAAAAAAAAAAHgAQCCAADFThgAYDAAPABxCYQgFWUICAAAAAAAAAAAEIAECDEAIAgQAOQAAPByIDAMGwcAIOAAAAAAAAAAAAAAAAAAAAAAAAAAAAAA==

> <PUBCHEM_IUPAC_OPENEYE_NAME>
[(2R,3R,5R)-2-ethyl-3-hydroxy-5-(5-methyl-2,4-dioxo-pyrimidin-1-yl)tetrahydrofuran-2-yl]methyl 2-isocyanoethyl isocyanomethyl phosphate

> <PUBCHEM_IUPAC_CAS_NAME>
phosphoric acid [(2R,3R,5R)-2-ethyl-3-hydroxy-5-(5-methyl-2,4-dioxo-1-pyrimidinyl)-2-oxolanyl]methyl 2-isocyanoethyl isocyanomethyl ester

> <PUBCHEM_IUPAC_NAME_MARKUP>
[(2<I>R</I>,3<I>R</I>,5<I>R</I>)-2-ethyl-3-hydroxy-5-(5-methyl-2,4-dioxopyrimidin-1-yl)oxolan-2-yl]methyl 2-isocyanoethyl isocyanomethyl phosphate

> <PUBCHEM_IUPAC_NAME>
[(2R,3R,5R)-2-ethyl-3-hydroxy-5-(5-methyl-2,4-dioxopyrimidin-1-yl)oxolan-2-yl]methyl 2-isocyanoethyl isocyanomethyl phosphate

> <PUBCHEM_IUPAC_SYSTEMATIC_NAME>
[(2R,3R,5R)-2-ethyl-5-[5-methyl-2,4-bis(oxidanylidene)pyrimidin-1-yl]-3-oxidanyl-oxolan-2-yl]methyl 2-isocyanoethyl isocyanomethyl phosphate

> <PUBCHEM_IUPAC_TRADITIONAL_NAME>
phosphoric acid [(2R,3R,5R)-5-(2,4-diketo-5-methyl-pyrimidin-1-yl)-2-ethyl-3-hydroxy-tetrahydrofuran-2-yl]methyl 2-isocyanoethyl isocyanomethyl ester

> <PUBCHEM_IUPAC_INCHI>
InChI=1S/C17H23N4O8P/c1-5-17(10-27-30(25,28-11-19-4)26-7-6-18-3)13(22)8-14(29-17)21-9-12(2)15(23)20-16(21)24/h9,13-14,22H,5-8,10-11H2,1-2H3,(H,20,23,24)/t13-,14-,17-,30?/m1/s1

> <PUBCHEM_IUPAC_INCHIKEY>
KIYIDXPCZFCQEO-RYJVGFMZSA-N

> <PUBCHEM_XLOGP3_AA>
-1.3

> <PUBCHEM_EXACT_MASS>
442.12535070

> <PUBCHEM_MOLECULAR_FORMULA>
C17H23N4O8P

> <PUBCHEM_MOLECULAR_WEIGHT>
442.4

> <PUBCHEM_OPENEYE_CAN_SMILES>
CCC1(C(CC(O1)N2C=C(C(=O)NC2=O)C)O)COP(=O)(OCC[N+]#[C-])OC[N+]#[C-]

> <PUBCHEM_OPENEYE_ISO_SMILES>
CC[C@]1([C@@H](C[C@@H](O1)N2C=C(C(=O)NC2=O)C)O)COP(=O)(OCC[N+]#[C-])OC[N+]#[C-]

> <PUBCHEM_CACTVS_TPSA>
132

> <PUBCHEM_MONOISOTOPIC_WEIGHT>
442.12535070

> <PUBCHEM_TOTAL_CHARGE>
0

> <PUBCHEM_HEAVY_ATOM_COUNT>
30

> <PUBCHEM_ATOM_DEF_STEREO_COUNT>
3

> <PUBCHEM_ATOM_UDEF_STEREO_COUNT>
1

> <PUBCHEM_BOND_DEF_STEREO_COUNT>
0

> <PUBCHEM_BOND_UDEF_STEREO_COUNT>
0

> <PUBCHEM_ISOTOPIC_ATOM_COUNT>
0

> <PUBCHEM_COMPONENT_COUNT>
1

> <PUBCHEM_CACTVS_TAUTO_COUNT>
-1

> <PUBCHEM_COORDINATE_TYPE>
1
5
255

> <PUBCHEM_BONDANNOTATIONS>
1  5  3
17  10  5
10  21  8
10  22  8
11  22  8
11  24  8
14  18  6
21  23  8
23  24  8
15  3  5

$$$$
