 
  -OEChem-10192104312D

 18 18  0     0  0  0  0  0  0999 V2000
    2.8090    1.6575    0.0000 P   0  0  0  0  0  0  0  0  0  0  0  0
    2.2212    2.4665    0.0000 O   0  0  0  0  0  0  0  0  0  0  0  0
    3.6180    2.2453    0.0000 O   0  0  0  0  0  0  0  0  0  0  0  0
    2.0000    1.0697    0.0000 O   0  0  0  0  0  0  0  0  0  0  0  0
    3.2688   -1.8251    0.0000 N   0  0  0  0  0  0  0  0  0  0  0  0
    4.5778   -0.8741    0.0000 N   0  0  0  0  0  0  0  0  0  0  0  0
    4.0778   -2.4129    0.0000 N   0  0  0  0  0  0  0  0  0  0  0  0
    4.8869   -1.8251    0.0000 N   0  0  0  0  0  0  0  0  0  0  0  0
    3.3968    0.8485    0.0000 C   0  0  0  0  0  0  0  0  0  0  0  0
    2.9901   -0.0651    0.0000 C   0  0  0  0  0  0  0  0  0  0  0  0
    3.5778   -0.8741    0.0000 C   0  0  0  0  0  0  0  0  0  0  0  0
    3.9108    0.5018    0.0000 H   0  0  0  0  0  0  0  0  0  0  0  0
    3.8275    1.2945    0.0000 H   0  0  0  0  0  0  0  0  0  0  0  0
    2.4761    0.2816    0.0000 H   0  0  0  0  0  0  0  0  0  0  0  0
    2.5594   -0.5110    0.0000 H   0  0  0  0  0  0  0  0  0  0  0  0
    2.4734    3.0329    0.0000 H   0  0  0  0  0  0  0  0  0  0  0  0
    4.1844    1.9931    0.0000 H   0  0  0  0  0  0  0  0  0  0  0  0
    4.0778   -3.0329    0.0000 H   0  0  0  0  0  0  0  0  0  0  0  0
  1  2  1  0  0  0  0
  1  3  1  0  0  0  0
  1  4  2  0  0  0  0
  1  9  1  0  0  0  0
  2 16  1  0  0  0  0
  3 17  1  0  0  0  0
  5  7  1  0  0  0  0
  5 11  2  0  0  0  0
  6  8  2  0  0  0  0
  6 11  1  0  0  0  0
  7  8  1  0  0  0  0
  7 18  1  0  0  0  0
  9 10  1  0  0  0  0
  9 12  1  0  0  0  0
  9 13  1  0  0  0  0
 10 11  1  0  0  0  0
 10 14  1  0  0  0  0
 10 15  1  0  0  0  0
M  END
> <PUBCHEM_COMPOUND_CID>
58953032

> <PUBCHEM_COMPOUND_CANONICALIZED>
1

> <PUBCHEM_CACTVS_COMPLEXITY>
170

> <PUBCHEM_CACTVS_HBOND_ACCEPTOR>
6

> <PUBCHEM_CACTVS_HBOND_DONOR>
3

> <PUBCHEM_CACTVS_ROTATABLE_BOND>
3

> <PUBCHEM_CACTVS_SUBSKEYS>
AAADcYBDsAIAAAAAAAAAAAAAAAAAAWAAAAAAAAAAAAAAAAABgAAAHAgYCCAACACJAwABEAQCABAiQAIgIIAAAAIAAAAUIAAwAAAAAAAAAAAAAAAAAAAAAAAAAAAAAAAAAAAAAAAAAAAAAAAAAAAAAAAAAA==

> <PUBCHEM_IUPAC_OPENEYE_NAME>
2-(2H-tetrazol-5-yl)ethylphosphonic acid

> <PUBCHEM_IUPAC_CAS_NAME>
2-(2H-tetrazol-5-yl)ethylphosphonic acid

> <PUBCHEM_IUPAC_NAME_MARKUP>
2-(2<I>H</I>-tetrazol-5-yl)ethylphosphonic acid

> <PUBCHEM_IUPAC_NAME>
2-(2H-tetrazol-5-yl)ethylphosphonic acid

> <PUBCHEM_IUPAC_SYSTEMATIC_NAME>
2-(2H-1,2,3,4-tetrazol-5-yl)ethylphosphonic acid

> <PUBCHEM_IUPAC_TRADITIONAL_NAME>
2-(2H-tetrazol-5-yl)ethylphosphonic acid

> <PUBCHEM_IUPAC_INCHI>
InChI=1S/C3H7N4O3P/c8-11(9,10)2-1-3-4-6-7-5-3/h1-2H2,(H2,8,9,10)(H,4,5,6,7)

> <PUBCHEM_IUPAC_INCHIKEY>
XPLKKCREAUJHKB-UHFFFAOYSA-N

> <PUBCHEM_XLOGP3_AA>
-2.1

> <PUBCHEM_EXACT_MASS>
178.02557710

> <PUBCHEM_MOLECULAR_FORMULA>
C3H7N4O3P

> <PUBCHEM_MOLECULAR_WEIGHT>
178.09

> <PUBCHEM_OPENEYE_CAN_SMILES>
C(CP(=O)(O)O)C1=NNN=N1

> <PUBCHEM_OPENEYE_ISO_SMILES>
C(CP(=O)(O)O)C1=NNN=N1

> <PUBCHEM_CACTVS_TPSA>
112

> <PUBCHEM_MONOISOTOPIC_WEIGHT>
178.02557710

> <PUBCHEM_TOTAL_CHARGE>
0

> <PUBCHEM_HEAVY_ATOM_COUNT>
11

> <PUBCHEM_ATOM_DEF_STEREO_COUNT>
0

> <PUBCHEM_ATOM_UDEF_STEREO_COUNT>
0

> <PUBCHEM_BOND_DEF_STEREO_COUNT>
0

> <PUBCHEM_BOND_UDEF_STEREO_COUNT>
0

> <PUBCHEM_ISOTOPIC_ATOM_COUNT>
0

> <PUBCHEM_COMPONENT_COUNT>
1

> <PUBCHEM_CACTVS_TAUTO_COUNT>
-1

> <PUBCHEM_COORDINATE_TYPE>
1
5
255

> <PUBCHEM_BONDANNOTATIONS>
5  11  8
5  7  8
6  11  8
6  8  8
7  8  8

$$$$
