 
  -OEChem-10192104162D

 75 78  0     0  0  0  0  0  0999 V2000
    7.1962   -0.8521    0.0000 O   0  0  0  0  0  0  0  0  0  0  0  0
    5.4946   -2.8016    0.0000 O   0  0  0  0  0  0  0  0  0  0  0  0
    2.8660    2.6479    0.0000 O   0  0  0  0  0  0  0  0  0  0  0  0
    4.5981   -0.3521    0.0000 O   0  0  0  0  0  0  0  0  0  0  0  0
    7.1962    1.1479    0.0000 O   0  0  0  0  0  0  0  0  0  0  0  0
    4.0804   -2.2839    0.0000 O   0  0  0  0  0  0  0  0  0  0  0  0
    5.4641    2.1479    0.0000 O   0  0  0  0  0  0  0  0  0  0  0  0
    4.5981   -0.3521    0.0000 O   0  0  0  0  0  0  0  0  0  0  0  0
    2.8660    0.6479    0.0000 O   0  0  0  0  0  0  0  0  0  0  0  0
    6.3301   -0.3521    0.0000 C   0  0  0  0  0  0  0  0  0  0  0  0
    8.0622   -0.3521    0.0000 C   0  0  0  0  0  0  0  0  0  0  0  0
    4.7875   -3.5087    0.0000 C   0  0  0  0  0  0  0  0  0  0  0  0
    5.2358   -1.8356    0.0000 C   0  0  0  0  0  0  0  0  0  0  0  0
    3.7320    2.1479    0.0000 C   0  0  0  0  0  0  0  0  0  0  0  0
    2.0000    2.1479    0.0000 C   0  0  0  0  0  0  0  0  0  0  0  0
    5.4641   -0.8521    0.0000 C   0  0  0  0  0  0  0  0  0  0  0  0
    8.0622    0.6479    0.0000 C   0  0  0  0  0  0  0  0  0  0  0  0
    3.8216   -3.2499    0.0000 C   0  0  0  0  0  0  0  0  0  0  0  0
    4.5981    2.6479    0.0000 C   0  0  0  0  0  0  0  0  0  0  0  0
    4.3698   -1.3356    0.0000 C   0  0  0  0  0  0  0  0  0  0  0  0
    2.0000    1.1479    0.0000 C   0  0  0  0  0  0  0  0  0  0  0  0
    3.6322   -0.6109    0.0000 C   0  0  0  0  0  0  0  0  0  0  0  0
    6.3301    0.6479    0.0000 C   0  0  0  0  0  0  0  0  0  0  0  0
    3.3733   -1.5768    0.0000 C   0  0  0  0  0  0  0  0  0  0  0  0
    5.4641    1.1479    0.0000 C   0  0  0  0  0  0  0  0  0  0  0  0
    4.5981    0.6479    0.0000 C   0  0  0  0  0  0  0  0  0  0  0  0
    3.7320    1.1479    0.0000 C   0  0  0  0  0  0  0  0  0  0  0  0
    5.0382   -0.0210    0.0000 C   0  0  0  0  0  0  0  0  0  0  0  0
    7.7414    1.2250    0.0000 C   0  0  0  0  0  0  0  0  0  0  0  0
    4.2961   -2.7907    0.0000 C   0  0  0  0  0  0  0  0  0  0  0  0
    5.2582    2.6587    0.0000 C   0  0  0  0  0  0  0  0  0  0  0  0
    4.8039   -0.8629    0.0000 C   0  0  0  0  0  0  0  0  0  0  0  0
    2.3207    0.5708    0.0000 C   0  0  0  0  0  0  0  0  0  0  0  0
    6.5241    3.5087    0.0000 C   0  0  0  0  0  0  0  0  0  0  0  0
    7.8446    2.7463    0.0000 C   0  0  0  0  0  0  0  0  0  0  0  0
    6.1868   -1.0238    0.0000 C   0  0  0  0  0  0  0  0  0  0  0  0
    5.7922   -2.4966    0.0000 C   0  0  0  0  0  0  0  0  0  0  0  0
    3.5380   -1.7128    0.0000 C   0  0  0  0  0  0  0  0  0  0  0  0
    2.2176   -0.9505    0.0000 C   0  0  0  0  0  0  0  0  0  0  0  0
    6.7287    0.1229    0.0000 H   0  0  0  0  0  0  0  0  0  0  0  0
    5.9316    0.1229    0.0000 H   0  0  0  0  0  0  0  0  0  0  0  0
    8.2742   -0.9347    0.0000 H   0  0  0  0  0  0  0  0  0  0  0  0
    8.6728   -0.2444    0.0000 H   0  0  0  0  0  0  0  0  0  0  0  0
    4.5255   -4.0706    0.0000 H   0  0  0  0  0  0  0  0  0  0  0  0
    5.2954   -3.8643    0.0000 H   0  0  0  0  0  0  0  0  0  0  0  0
    5.8558   -1.8356    0.0000 H   0  0  0  0  0  0  0  0  0  0  0  0
    5.3963   -1.2368    0.0000 H   0  0  0  0  0  0  0  0  0  0  0  0
    4.1306    1.6730    0.0000 H   0  0  0  0  0  0  0  0  0  0  0  0
    3.3335    1.6730    0.0000 H   0  0  0  0  0  0  0  0  0  0  0  0
    1.7880    2.7305    0.0000 H   0  0  0  0  0  0  0  0  0  0  0  0
    1.3894    2.0402    0.0000 H   0  0  0  0  0  0  0  0  0  0  0  0
    5.0656   -1.3270    0.0000 H   0  0  0  0  0  0  0  0  0  0  0  0
    5.8626   -1.3270    0.0000 H   0  0  0  0  0  0  0  0  0  0  0  0
    8.6728    0.5403    0.0000 H   0  0  0  0  0  0  0  0  0  0  0  0
    8.2742    1.2305    0.0000 H   0  0  0  0  0  0  0  0  0  0  0  0
    3.2227   -3.0894    0.0000 H   0  0  0  0  0  0  0  0  0  0  0  0
    3.6612   -3.8487    0.0000 H   0  0  0  0  0  0  0  0  0  0  0  0
    4.9966    3.1229    0.0000 H   0  0  0  0  0  0  0  0  0  0  0  0
    4.1996    3.1229    0.0000 H   0  0  0  0  0  0  0  0  0  0  0  0
    3.7826   -1.1368    0.0000 H   0  0  0  0  0  0  0  0  0  0  0  0
    4.1141   -1.9005    0.0000 H   0  0  0  0  0  0  0  0  0  0  0  0
    1.3894    1.2556    0.0000 H   0  0  0  0  0  0  0  0  0  0  0  0
    1.7880    0.5653    0.0000 H   0  0  0  0  0  0  0  0  0  0  0  0
    5.1371    0.5910    0.0000 H   0  0  0  0  0  0  0  0  0  0  0  0
    8.2442    0.8622    0.0000 H   0  0  0  0  0  0  0  0  0  0  0  0
    4.0757   -3.3702    0.0000 H   0  0  0  0  0  0  0  0  0  0  0  0
    4.6927    2.9127    0.0000 H   0  0  0  0  0  0  0  0  0  0  0  0
    5.3695   -1.1168    0.0000 H   0  0  0  0  0  0  0  0  0  0  0  0
    1.8180    0.9336    0.0000 H   0  0  0  0  0  0  0  0  0  0  0  0
    6.5031    4.1283    0.0000 H   0  0  0  0  0  0  0  0  0  0  0  0
    8.3917    3.0380    0.0000 H   0  0  0  0  0  0  0  0  0  0  0  0
    6.7799   -0.8431    0.0000 H   0  0  0  0  0  0  0  0  0  0  0  0
    6.2155   -2.9496    0.0000 H   0  0  0  0  0  0  0  0  0  0  0  0
    3.5590   -2.3325    0.0000 H   0  0  0  0  0  0  0  0  0  0  0  0
    1.6705   -1.2421    0.0000 H   0  0  0  0  0  0  0  0  0  0  0  0
  1 10  1  0  0  0  0
  1 11  1  0  0  0  0
  2 12  1  0  0  0  0
  2 13  1  0  0  0  0
  3 14  1  0  0  0  0
  3 15  1  0  0  0  0
  4 16  1  0  0  0  0
  4 22  1  0  0  0  0
  5 17  1  0  0  0  0
  5 23  1  0  0  0  0
  6 18  1  0  0  0  0
  6 24  1  0  0  0  0
  7 19  1  0  0  0  0
  7 25  1  0  0  0  0
  8 20  1  0  0  0  0
  8 26  1  0  0  0  0
  9 21  1  0  0  0  0
  9 27  1  0  0  0  0
 10 16  1  0  0  0  0
 10 40  1  0  0  0  0
 10 41  1  0  0  0  0
 11 17  1  0  0  0  0
 11 42  1  0  0  0  0
 11 43  1  0  0  0  0
 12 18  1  0  0  0  0
 12 44  1  0  0  0  0
 12 45  1  0  0  0  0
 13 20  1  0  0  0  0
 13 46  1  0  0  0  0
 13 47  1  0  0  0  0
 14 19  1  0  0  0  0
 14 48  1  0  0  0  0
 14 49  1  0  0  0  0
 15 21  1  0  0  0  0
 15 50  1  0  0  0  0
 15 51  1  0  0  0  0
 16 52  1  0  0  0  0
 16 53  1  0  0  0  0
 17 54  1  0  0  0  0
 17 55  1  0  0  0  0
 18 56  1  0  0  0  0
 18 57  1  0  0  0  0
 19 58  1  0  0  0  0
 19 59  1  0  0  0  0
 20 60  1  0  0  0  0
 20 61  1  0  0  0  0
 21 62  1  0  0  0  0
 21 63  1  0  0  0  0
 22 24  1  0  0  0  0
 22 28  2  0  0  0  0
 23 25  1  0  0  0  0
 23 29  2  0  0  0  0
 24 30  2  0  0  0  0
 25 31  2  0  0  0  0
 26 27  1  0  0  0  0
 26 32  2  0  0  0  0
 27 33  2  0  0  0  0
 28 36  1  0  0  0  0
 28 64  1  0  0  0  0
 29 35  1  0  0  0  0
 29 65  1  0  0  0  0
 30 37  1  0  0  0  0
 30 66  1  0  0  0  0
 31 34  1  0  0  0  0
 31 67  1  0  0  0  0
 32 38  1  0  0  0  0
 32 68  1  0  0  0  0
 33 39  1  0  0  0  0
 33 69  1  0  0  0  0
 34 35  2  0  0  0  0
 34 70  1  0  0  0  0
 35 71  1  0  0  0  0
 36 37  2  0  0  0  0
 36 72  1  0  0  0  0
 37 73  1  0  0  0  0
 38 39  2  0  0  0  0
 38 74  1  0  0  0  0
 39 75  1  0  0  0  0
M  END
> <PUBCHEM_COMPOUND_CID>
12223386

> <PUBCHEM_COMPOUND_CANONICALIZED>
1

> <PUBCHEM_CACTVS_COMPLEXITY>
480

> <PUBCHEM_CACTVS_HBOND_ACCEPTOR>
9

> <PUBCHEM_CACTVS_HBOND_DONOR>
0

> <PUBCHEM_CACTVS_ROTATABLE_BOND>
0

> <PUBCHEM_CACTVS_SUBSKEYS>
AAADcfB4PAAAAAAAAAAAAAAAAAAAAAAAAAAwYMAAAAAAAAABUAAAGgAAAAAACASgkAIwBoAABACAACBCAAACCAAgIAAIiAAGiIgNJiKEMRqCOCKkwBEKqAeAQAAAAAAAAAAAQAAAAAAAAACAAAAAAAAAAA==

> <PUBCHEM_IUPAC_OPENEYE_NAME>
2,5,8,15,18,21,28,31,34-nonaoxatetracyclo[33.4.0.09,14.022,27]nonatriaconta-1(39),9,11,13,22,24,26,35,37-nonaene

> <PUBCHEM_IUPAC_CAS_NAME>
2,5,8,15,18,21,28,31,34-nonaoxatetracyclo[33.4.0.09,14.022,27]nonatriaconta-1(39),9,11,13,22,24,26,35,37-nonaene

> <PUBCHEM_IUPAC_NAME_MARKUP>
2,5,8,15,18,21,28,31,34-nonaoxatetracyclo[33.4.0.0<SUP>9,14</SUP>.0<SUP>22,27</SUP>]nonatriaconta-1(39),9,11,13,22,24,26,35,37-nonaene

> <PUBCHEM_IUPAC_NAME>
2,5,8,15,18,21,28,31,34-nonaoxatetracyclo[33.4.0.09,14.022,27]nonatriaconta-1(39),9,11,13,22,24,26,35,37-nonaene

> <PUBCHEM_IUPAC_SYSTEMATIC_NAME>
2,5,8,15,18,21,28,31,34-nonaoxatetracyclo[33.4.0.09,14.022,27]nonatriaconta-1(39),9,11,13,22,24,26,35,37-nonaene

> <PUBCHEM_IUPAC_TRADITIONAL_NAME>
2,5,8,15,18,21,28,31,34-nonaoxatetracyclo[33.4.0.09,14.022,27]nonatriaconta-1(39),9,11,13,22,24,26,35,37-nonaene

> <PUBCHEM_IUPAC_INCHI>
InChI=1S/C30H36O9/c1-2-8-26-25(7-1)34-19-13-31-15-21-36-27-9-3-4-10-28(27)38-23-17-33-18-24-39-30-12-6-5-11-29(30)37-22-16-32-14-20-35-26/h1-12H,13-24H2

> <PUBCHEM_IUPAC_INCHIKEY>
UEIDEPDRSLTBHG-UHFFFAOYSA-N

> <PUBCHEM_XLOGP3>
3.7

> <PUBCHEM_EXACT_MASS>
540.23593272

> <PUBCHEM_MOLECULAR_FORMULA>
C30H36O9

> <PUBCHEM_MOLECULAR_WEIGHT>
540.6

> <PUBCHEM_OPENEYE_CAN_SMILES>
C1COC2=CC=CC=C2OCCOCCOC3=CC=CC=C3OCCOCCOC4=CC=CC=C4OCCO1

> <PUBCHEM_OPENEYE_ISO_SMILES>
C1COC2=CC=CC=C2OCCOCCOC3=CC=CC=C3OCCOCCOC4=CC=CC=C4OCCO1

> <PUBCHEM_CACTVS_TPSA>
83.1

> <PUBCHEM_MONOISOTOPIC_WEIGHT>
540.23593272

> <PUBCHEM_TOTAL_CHARGE>
0

> <PUBCHEM_HEAVY_ATOM_COUNT>
39

> <PUBCHEM_ATOM_DEF_STEREO_COUNT>
0

> <PUBCHEM_ATOM_UDEF_STEREO_COUNT>
0

> <PUBCHEM_BOND_DEF_STEREO_COUNT>
0

> <PUBCHEM_BOND_UDEF_STEREO_COUNT>
0

> <PUBCHEM_ISOTOPIC_ATOM_COUNT>
0

> <PUBCHEM_COMPONENT_COUNT>
1

> <PUBCHEM_CACTVS_TAUTO_COUNT>
-1

> <PUBCHEM_COORDINATE_TYPE>
1
5
255

> <PUBCHEM_BONDANNOTATIONS>
22  24  8
22  28  8
23  25  8
23  29  8
24  30  8
25  31  8
26  27  8
26  32  8
27  33  8
28  36  8
29  35  8
30  37  8
31  34  8
32  38  8
33  39  8
34  35  8
36  37  8
38  39  8

$$$$
