 
  -OEChem-10192104052D

 74 74  0     1  0  0  0  0  0999 V2000
    9.7942   -1.3100    0.0000 S   0  0  0  0  0  0  0  0  0  0  0  0
    5.4641    0.1900    0.0000 O   0  0  0  0  0  0  0  0  0  0  0  0
    3.7320    2.1900    0.0000 O   0  0  0  0  0  0  0  0  0  0  0  0
    6.3301    1.6900    0.0000 O   0  0  0  0  0  0  0  0  0  0  0  0
    6.3301    3.6900    0.0000 O   0  0  0  0  0  0  0  0  0  0  0  0
    2.8660    1.6900    0.0000 O   0  0  0  0  0  0  0  0  0  0  0  0
    7.1962   -0.8100    0.0000 O   0  0  0  0  0  0  0  0  0  0  0  0
    2.0000   -0.8100    0.0000 O   0  0  0  0  0  0  0  0  0  0  0  0
    9.7942    1.6900    0.0000 O   0  0  0  0  0  0  0  0  0  0  0  0
   12.3923   -0.8100    0.0000 O   0  0  0  0  0  0  0  0  0  0  0  0
   13.2583    3.6900    0.0000 O   0  0  0  0  0  0  0  0  0  0  0  0
   11.5263    3.6900    0.0000 O   0  0  0  0  0  0  0  0  0  0  0  0
    3.7320   -0.8100    0.0000 N   0  0  0  0  0  0  0  0  0  0  0  0
    8.0622    0.6900    0.0000 N   0  0  0  0  0  0  0  0  0  0  0  0
   10.6603    0.1900    0.0000 N   0  0  0  0  0  0  0  0  0  0  0  0
   13.2583    0.6900    0.0000 N   0  0  0  0  0  0  0  0  0  0  0  0
    4.5981    0.6900    0.0000 C   0  0  1  0  0  0  0  0  0  0  0  0
    4.5981    1.6900    0.0000 C   0  0  1  0  0  0  0  0  0  0  0  0
    3.7320    0.1900    0.0000 C   0  0  2  0  0  0  0  0  0  0  0  0
    5.4641    2.1900    0.0000 C   0  0  1  0  0  0  0  0  0  0  0  0
    5.4641    3.1900    0.0000 C   0  0  0  0  0  0  0  0  0  0  0  0
    6.3301    0.6900    0.0000 C   0  0  0  0  0  0  0  0  0  0  0  0
    2.8660    0.6900    0.0000 C   0  0  0  0  0  0  0  0  0  0  0  0
    8.9282    0.1900    0.0000 C   0  0  3  0  0  0  0  0  0  0  0  0
    7.1962    0.1900    0.0000 C   0  0  0  0  0  0  0  0  0  0  0  0
   11.5263    0.6900    0.0000 C   0  0  3  0  0  0  0  0  0  0  0  0
    2.8660   -1.3100    0.0000 C   0  0  0  0  0  0  0  0  0  0  0  0
   11.5263    1.6900    0.0000 C   0  0  0  0  0  0  0  0  0  0  0  0
    9.7942    0.6900    0.0000 C   0  0  0  0  0  0  0  0  0  0  0  0
    8.9282   -0.8100    0.0000 C   0  0  0  0  0  0  0  0  0  0  0  0
   12.3923    2.1900    0.0000 C   0  0  0  0  0  0  0  0  0  0  0  0
    2.8660   -2.3100    0.0000 C   0  0  0  0  0  0  0  0  0  0  0  0
   12.3923    0.1900    0.0000 C   0  0  0  0  0  0  0  0  0  0  0  0
    3.7320   -2.8100    0.0000 C   0  0  0  0  0  0  0  0  0  0  0  0
    2.0000   -2.8100    0.0000 C   0  0  0  0  0  0  0  0  0  0  0  0
   12.3923    3.1900    0.0000 C   0  0  0  0  0  0  0  0  0  0  0  0
    3.7320   -3.8100    0.0000 C   0  0  0  0  0  0  0  0  0  0  0  0
    2.0000   -3.8100    0.0000 C   0  0  0  0  0  0  0  0  0  0  0  0
    9.7942   -2.3100    0.0000 C   0  0  0  0  0  0  0  0  0  0  0  0
    2.8660   -4.3100    0.0000 C   0  0  0  0  0  0  0  0  0  0  0  0
    4.5981    0.0700    0.0000 H   0  0  0  0  0  0  0  0  0  0  0  0
    4.5981    2.3100    0.0000 H   0  0  0  0  0  0  0  0  0  0  0  0
    3.1951   -0.1200    0.0000 H   0  0  0  0  0  0  0  0  0  0  0  0
    5.4641    1.5700    0.0000 H   0  0  0  0  0  0  0  0  0  0  0  0
    5.2520    3.7726    0.0000 H   0  0  0  0  0  0  0  0  0  0  0  0
    4.8535    3.0823    0.0000 H   0  0  0  0  0  0  0  0  0  0  0  0
    4.2690   -1.1200    0.0000 H   0  0  0  0  0  0  0  0  0  0  0  0
    6.7287    1.1650    0.0000 H   0  0  0  0  0  0  0  0  0  0  0  0
    5.9316    1.1650    0.0000 H   0  0  0  0  0  0  0  0  0  0  0  0
    2.3291    0.3800    0.0000 H   0  0  0  0  0  0  0  0  0  0  0  0
    3.7320    2.8100    0.0000 H   0  0  0  0  0  0  0  0  0  0  0  0
    8.9282    0.8100    0.0000 H   0  0  0  0  0  0  0  0  0  0  0  0
    6.8671    2.0000    0.0000 H   0  0  0  0  0  0  0  0  0  0  0  0
   10.9893    1.0000    0.0000 H   0  0  0  0  0  0  0  0  0  0  0  0
    8.0622    1.3100    0.0000 H   0  0  0  0  0  0  0  0  0  0  0  0
   11.3142    2.2726    0.0000 H   0  0  0  0  0  0  0  0  0  0  0  0
   10.9157    1.5823    0.0000 H   0  0  0  0  0  0  0  0  0  0  0  0
   10.6603   -0.4300    0.0000 H   0  0  0  0  0  0  0  0  0  0  0  0
    8.3176   -0.7023    0.0000 H   0  0  0  0  0  0  0  0  0  0  0  0
    8.7162   -1.3926    0.0000 H   0  0  0  0  0  0  0  0  0  0  0  0
    6.3301    4.3100    0.0000 H   0  0  0  0  0  0  0  0  0  0  0  0
   12.6044    1.6074    0.0000 H   0  0  0  0  0  0  0  0  0  0  0  0
   13.0029    2.2977    0.0000 H   0  0  0  0  0  0  0  0  0  0  0  0
    4.2690   -2.5000    0.0000 H   0  0  0  0  0  0  0  0  0  0  0  0
    1.4631   -2.5000    0.0000 H   0  0  0  0  0  0  0  0  0  0  0  0
   13.7953    0.3800    0.0000 H   0  0  0  0  0  0  0  0  0  0  0  0
   13.2583    1.3100    0.0000 H   0  0  0  0  0  0  0  0  0  0  0  0
    4.2690   -4.1200    0.0000 H   0  0  0  0  0  0  0  0  0  0  0  0
    1.4631   -4.1200    0.0000 H   0  0  0  0  0  0  0  0  0  0  0  0
    9.1742   -2.3100    0.0000 H   0  0  0  0  0  0  0  0  0  0  0  0
    9.7942   -2.9300    0.0000 H   0  0  0  0  0  0  0  0  0  0  0  0
   10.4142   -2.3100    0.0000 H   0  0  0  0  0  0  0  0  0  0  0  0
    2.8660   -4.9300    0.0000 H   0  0  0  0  0  0  0  0  0  0  0  0
   13.2583    4.3100    0.0000 H   0  0  0  0  0  0  0  0  0  0  0  0
  1 30  1  0  0  0  0
  1 39  1  0  0  0  0
 17  2  1  6  0  0  0
  2 22  1  0  0  0  0
 18  3  1  6  0  0  0
  3 51  1  0  0  0  0
 20  4  1  1  0  0  0
  4 53  1  0  0  0  0
  5 21  1  0  0  0  0
  5 61  1  0  0  0  0
  6 23  2  0  0  0  0
  7 25  2  0  0  0  0
  8 27  2  0  0  0  0
  9 29  2  0  0  0  0
 10 33  2  0  0  0  0
 11 36  1  0  0  0  0
 11 74  1  0  0  0  0
 12 36  2  0  0  0  0
 19 13  1  1  0  0  0
 13 27  1  0  0  0  0
 13 47  1  0  0  0  0
 14 24  1  0  0  0  0
 14 25  1  0  0  0  0
 14 55  1  0  0  0  0
 15 26  1  0  0  0  0
 15 29  1  0  0  0  0
 15 58  1  0  0  0  0
 16 33  1  0  0  0  0
 16 66  1  0  0  0  0
 16 67  1  0  0  0  0
 17 18  1  0  0  0  0
 17 19  1  0  0  0  0
 17 41  1  0  0  0  0
 18 20  1  0  0  0  0
 18 42  1  0  0  0  0
 19 23  1  0  0  0  0
 19 43  1  0  0  0  0
 20 21  1  0  0  0  0
 20 44  1  0  0  0  0
 21 45  1  0  0  0  0
 21 46  1  0  0  0  0
 22 25  1  0  0  0  0
 22 48  1  0  0  0  0
 22 49  1  0  0  0  0
 23 50  1  0  0  0  0
 24 29  1  0  0  0  0
 24 30  1  0  0  0  0
 24 52  1  0  0  0  0
 26 28  1  0  0  0  0
 26 33  1  0  0  0  0
 26 54  1  0  0  0  0
 27 32  1  0  0  0  0
 28 31  1  0  0  0  0
 28 56  1  0  0  0  0
 28 57  1  0  0  0  0
 30 59  1  0  0  0  0
 30 60  1  0  0  0  0
 31 36  1  0  0  0  0
 31 62  1  0  0  0  0
 31 63  1  0  0  0  0
 32 34  2  0  0  0  0
 32 35  1  0  0  0  0
 34 37  1  0  0  0  0
 34 64  1  0  0  0  0
 35 38  2  0  0  0  0
 35 65  1  0  0  0  0
 37 40  2  0  0  0  0
 37 68  1  0  0  0  0
 38 40  1  0  0  0  0
 38 69  1  0  0  0  0
 39 70  1  0  0  0  0
 39 71  1  0  0  0  0
 39 72  1  0  0  0  0
 40 73  1  0  0  0  0
M  END
> <PUBCHEM_COMPOUND_CID>
88602618

> <PUBCHEM_COMPOUND_CANONICALIZED>
1

> <PUBCHEM_CACTVS_COMPLEXITY>
872

> <PUBCHEM_CACTVS_HBOND_ACCEPTOR>
12

> <PUBCHEM_CACTVS_HBOND_DONOR>
8

> <PUBCHEM_CACTVS_ROTATABLE_BOND>
19

> <PUBCHEM_CACTVS_SUBSKEYS>
AAADcfB7vABAAAAAAAAAAAAAAAAAAAAAAAAwAAAAAAAAAAABAAAAHgQQCAAADDzl2AayCILABgiIAinSmAKCAAAkABAIiIHIBMgLcDaglTWXYQhntgCbiYf+3wPOAAAAAAAAAAAAAAAAAAAAAAAAAAAAAA==

> <PUBCHEM_IUPAC_OPENEYE_NAME>
5-amino-4-[[2-[[2-[(1R,2R,3R)-1-[(1R)-1-benzamido-2-oxo-ethyl]-2,3,4-trihydroxy-butoxy]acetyl]amino]-3-methylsulfanyl-propanoyl]amino]-5-oxo-pentanoic acid

> <PUBCHEM_IUPAC_CAS_NAME>
5-amino-4-[[2-[[2-[(2R,3R,4R,5R)-2-benzamido-4,5,6-trihydroxy-1-oxohexan-3-yl]oxy-1-oxoethyl]amino]-3-(methylthio)-1-oxopropyl]amino]-5-oxopentanoic acid

> <PUBCHEM_IUPAC_NAME_MARKUP>
5-amino-4-[[2-[[2-[(2<I>R</I>,3<I>R</I>,4<I>R</I>,5<I>R</I>)-2-benzamido-4,5,6-trihydroxy-1-oxohexan-3-yl]oxyacetyl]amino]-3-methylsulfanylpropanoyl]amino]-5-oxopentanoic acid

> <PUBCHEM_IUPAC_NAME>
5-amino-4-[[2-[[2-[(2R,3R,4R,5R)-2-benzamido-4,5,6-trihydroxy-1-oxohexan-3-yl]oxyacetyl]amino]-3-methylsulfanylpropanoyl]amino]-5-oxopentanoic acid

> <PUBCHEM_IUPAC_SYSTEMATIC_NAME>
5-azanyl-4-[[2-[2-[(2R,3R,4R,5R)-2-benzamido-4,5,6-tris(oxidanyl)-1-oxidanylidene-hexan-3-yl]oxyethanoylamino]-3-methylsulfanyl-propanoyl]amino]-5-oxidanylidene-pentanoic acid

> <PUBCHEM_IUPAC_TRADITIONAL_NAME>
5-amino-4-[[2-[[2-[(1R,2R,3R)-1-[(1R)-1-benzamido-2-keto-ethyl]-2,3,4-trihydroxy-butoxy]acetyl]amino]-3-(methylthio)propanoyl]amino]-5-keto-valeric acid

> <PUBCHEM_IUPAC_INCHI>
InChI=1S/C24H34N4O11S/c1-40-12-16(24(38)27-14(22(25)36)7-8-19(33)34)26-18(32)11-39-21(20(35)17(31)10-30)15(9-29)28-23(37)13-5-3-2-4-6-13/h2-6,9,14-17,20-21,30-31,35H,7-8,10-12H2,1H3,(H2,25,36)(H,26,32)(H,27,38)(H,28,37)(H,33,34)/t14?,15-,16?,17+,20+,21+/m0/s1

> <PUBCHEM_IUPAC_INCHIKEY>
SYPXEIFOWJEORQ-PNISXZEASA-N

> <PUBCHEM_XLOGP3_AA>
-3

> <PUBCHEM_EXACT_MASS>
586.19447909

> <PUBCHEM_MOLECULAR_FORMULA>
C24H34N4O11S

> <PUBCHEM_MOLECULAR_WEIGHT>
586.6

> <PUBCHEM_OPENEYE_CAN_SMILES>
CSCC(C(=O)NC(CCC(=O)O)C(=O)N)NC(=O)COC(C(C=O)NC(=O)C1=CC=CC=C1)C(C(CO)O)O

> <PUBCHEM_OPENEYE_ISO_SMILES>
CSCC(C(=O)NC(CCC(=O)O)C(=O)N)NC(=O)CO[C@H]([C@H](C=O)NC(=O)C1=CC=CC=C1)[C@@H]([C@@H](CO)O)O

> <PUBCHEM_CACTVS_TPSA>
280

> <PUBCHEM_MONOISOTOPIC_WEIGHT>
586.19447909

> <PUBCHEM_TOTAL_CHARGE>
0

> <PUBCHEM_HEAVY_ATOM_COUNT>
40

> <PUBCHEM_ATOM_DEF_STEREO_COUNT>
4

> <PUBCHEM_ATOM_UDEF_STEREO_COUNT>
2

> <PUBCHEM_BOND_DEF_STEREO_COUNT>
0

> <PUBCHEM_BOND_UDEF_STEREO_COUNT>
0

> <PUBCHEM_ISOTOPIC_ATOM_COUNT>
0

> <PUBCHEM_COMPONENT_COUNT>
1

> <PUBCHEM_CACTVS_TAUTO_COUNT>
-1

> <PUBCHEM_COORDINATE_TYPE>
1
5
255

> <PUBCHEM_BONDANNOTATIONS>
19  13  5
17  2  6
24  30  3
26  28  3
18  3  6
32  34  8
32  35  8
34  37  8
35  38  8
37  40  8
38  40  8
20  4  5

$$$$
