 
  -OEChem-10192104402D

 43 44  0     1  0  0  0  0  0999 V2000
    4.2690    0.2500    0.0000 O   0  0  0  0  0  0  0  0  0  0  0  0
    4.2690   -2.7500    0.0000 O   0  0  0  0  0  0  0  0  0  0  0  0
    2.5369   -1.7500    0.0000 O   0  0  0  0  0  0  0  0  0  0  0  0
    2.5369    1.2500    0.0000 O   0  0  0  0  0  0  0  0  0  0  0  0
    5.1350   -3.2500    0.0000 O   0  0  0  0  0  0  0  0  0  0  0  0
    5.1350    1.7500    0.0000 O   0  0  0  0  0  0  0  0  0  0  0  0
    6.0010   -1.7500    0.0000 N   0  0  0  0  0  0  0  0  0  0  0  0
    6.0010    0.2500    0.0000 N   0  0  0  0  0  0  0  0  0  0  0  0
    5.1350   -1.2500    0.0000 C   0  0  2  0  0  0  0  0  0  0  0  0
    4.2690   -1.7500    0.0000 C   0  0  2  0  0  0  0  0  0  0  0  0
    3.4030   -1.2500    0.0000 C   0  0  1  0  0  0  0  0  0  0  0  0
    5.1350   -0.2500    0.0000 C   0  0  1  0  0  0  0  0  0  0  0  0
    3.4030   -0.2500    0.0000 C   0  0  1  0  0  0  0  0  0  0  0  0
    2.5369    0.2500    0.0000 C   0  0  0  0  0  0  0  0  0  0  0  0
    6.0010   -2.7500    0.0000 C   0  0  0  0  0  0  0  0  0  0  0  0
    6.0010    1.2500    0.0000 C   0  0  0  0  0  0  0  0  0  0  0  0
    6.8671   -3.2500    0.0000 C   0  0  0  0  0  0  0  0  0  0  0  0
    6.8671    1.7500    0.0000 C   0  0  0  0  0  0  0  0  0  0  0  0
    6.8671    2.7500    0.0000 C   0  0  0  0  0  0  0  0  0  0  0  0
    7.7331    1.2500    0.0000 C   0  0  0  0  0  0  0  0  0  0  0  0
    7.7331    3.2500    0.0000 C   0  0  0  0  0  0  0  0  0  0  0  0
    8.5991    1.7500    0.0000 C   0  0  0  0  0  0  0  0  0  0  0  0
    8.5991    2.7500    0.0000 C   0  0  0  0  0  0  0  0  0  0  0  0
    5.6720   -0.9400    0.0000 H   0  0  0  0  0  0  0  0  0  0  0  0
    4.8059   -2.0600    0.0000 H   0  0  0  0  0  0  0  0  0  0  0  0
    3.4030   -1.8700    0.0000 H   0  0  0  0  0  0  0  0  0  0  0  0
    5.1350    0.3700    0.0000 H   0  0  0  0  0  0  0  0  0  0  0  0
    3.4030    0.3700    0.0000 H   0  0  0  0  0  0  0  0  0  0  0  0
    6.5380   -1.4400    0.0000 H   0  0  0  0  0  0  0  0  0  0  0  0
    1.9264    0.3577    0.0000 H   0  0  0  0  0  0  0  0  0  0  0  0
    2.3249   -0.3326    0.0000 H   0  0  0  0  0  0  0  0  0  0  0  0
    6.5380   -0.0600    0.0000 H   0  0  0  0  0  0  0  0  0  0  0  0
    3.7320   -3.0600    0.0000 H   0  0  0  0  0  0  0  0  0  0  0  0
    2.0000   -1.4400    0.0000 H   0  0  0  0  0  0  0  0  0  0  0  0
    2.0000    1.5600    0.0000 H   0  0  0  0  0  0  0  0  0  0  0  0
    6.5571   -3.7869    0.0000 H   0  0  0  0  0  0  0  0  0  0  0  0
    7.4040   -3.5600    0.0000 H   0  0  0  0  0  0  0  0  0  0  0  0
    7.1771   -2.7131    0.0000 H   0  0  0  0  0  0  0  0  0  0  0  0
    6.3301    3.0600    0.0000 H   0  0  0  0  0  0  0  0  0  0  0  0
    7.7331    0.6300    0.0000 H   0  0  0  0  0  0  0  0  0  0  0  0
    7.7331    3.8700    0.0000 H   0  0  0  0  0  0  0  0  0  0  0  0
    9.1360    1.4400    0.0000 H   0  0  0  0  0  0  0  0  0  0  0  0
    9.1360    3.0600    0.0000 H   0  0  0  0  0  0  0  0  0  0  0  0
  1 12  1  0  0  0  0
  1 13  1  0  0  0  0
 10  2  1  1  0  0  0
  2 33  1  0  0  0  0
 11  3  1  6  0  0  0
  3 34  1  0  0  0  0
  4 14  1  0  0  0  0
  4 35  1  0  0  0  0
  5 15  2  0  0  0  0
  6 16  2  0  0  0  0
  9  7  1  6  0  0  0
  7 15  1  0  0  0  0
  7 29  1  0  0  0  0
 12  8  1  1  0  0  0
  8 16  1  0  0  0  0
  8 32  1  0  0  0  0
  9 10  1  0  0  0  0
  9 12  1  0  0  0  0
  9 24  1  0  0  0  0
 10 11  1  0  0  0  0
 10 25  1  0  0  0  0
 11 13  1  0  0  0  0
 11 26  1  0  0  0  0
 12 27  1  0  0  0  0
 13 14  1  1  0  0  0
 13 28  1  0  0  0  0
 14 30  1  0  0  0  0
 14 31  1  0  0  0  0
 15 17  1  0  0  0  0
 16 18  1  0  0  0  0
 17 36  1  0  0  0  0
 17 37  1  0  0  0  0
 17 38  1  0  0  0  0
 18 19  2  0  0  0  0
 18 20  1  0  0  0  0
 19 21  1  0  0  0  0
 19 39  1  0  0  0  0
 20 22  2  0  0  0  0
 20 40  1  0  0  0  0
 21 23  2  0  0  0  0
 21 41  1  0  0  0  0
 22 23  1  0  0  0  0
 22 42  1  0  0  0  0
 23 43  1  0  0  0  0
M  END
> <PUBCHEM_COMPOUND_CID>
102440546

> <PUBCHEM_COMPOUND_CANONICALIZED>
1

> <PUBCHEM_CACTVS_COMPLEXITY>
426

> <PUBCHEM_CACTVS_HBOND_ACCEPTOR>
6

> <PUBCHEM_CACTVS_HBOND_DONOR>
5

> <PUBCHEM_CACTVS_ROTATABLE_BOND>
4

> <PUBCHEM_CACTVS_SUBSKEYS>
AAADceBzOAAAAAAAAAAAAAAAAAAAAAAAAAA0QAAAAAAAAAABAAAAHgAQCAAADDzhmAYyAILABgCIAiFSEACCAAAkAAAIiIEIBMkLcDKAlRGfYQhnlgCbiYf42AOOAAAAAAAAAAAAAAAAAAAAAAAAAAAAAA==

> <PUBCHEM_IUPAC_OPENEYE_NAME>
N-[(2R,3R,4R,5S,6R)-3-acetamido-4,5-dihydroxy-6-(hydroxymethyl)tetrahydropyran-2-yl]benzamide

> <PUBCHEM_IUPAC_CAS_NAME>
N-[(2R,3R,4R,5S,6R)-3-acetamido-4,5-dihydroxy-6-(hydroxymethyl)-2-oxanyl]benzamide

> <PUBCHEM_IUPAC_NAME_MARKUP>
<I>N</I>-[(2<I>R</I>,3<I>R</I>,4<I>R</I>,5<I>S</I>,6<I>R</I>)-3-acetamido-4,5-dihydroxy-6-(hydroxymethyl)oxan-2-yl]benzamide

> <PUBCHEM_IUPAC_NAME>
N-[(2R,3R,4R,5S,6R)-3-acetamido-4,5-dihydroxy-6-(hydroxymethyl)oxan-2-yl]benzamide

> <PUBCHEM_IUPAC_SYSTEMATIC_NAME>
N-[(2R,3R,4R,5S,6R)-3-acetamido-6-(hydroxymethyl)-4,5-bis(oxidanyl)oxan-2-yl]benzamide

> <PUBCHEM_IUPAC_TRADITIONAL_NAME>
N-[(2R,3R,4R,5S,6R)-3-acetamido-4,5-dihydroxy-6-methylol-tetrahydropyran-2-yl]benzamide

> <PUBCHEM_IUPAC_INCHI>
InChI=1S/C15H20N2O6/c1-8(19)16-11-13(21)12(20)10(7-18)23-15(11)17-14(22)9-5-3-2-4-6-9/h2-6,10-13,15,18,20-21H,7H2,1H3,(H,16,19)(H,17,22)/t10-,11-,12-,13-,15-/m1/s1

> <PUBCHEM_IUPAC_INCHIKEY>
DKXTWJUVCOMYDG-FTQJZPFOSA-N

> <PUBCHEM_XLOGP3_AA>
-0.9

> <PUBCHEM_EXACT_MASS>
324.13213636

> <PUBCHEM_MOLECULAR_FORMULA>
C15H20N2O6

> <PUBCHEM_MOLECULAR_WEIGHT>
324.33

> <PUBCHEM_OPENEYE_CAN_SMILES>
CC(=O)NC1C(C(C(OC1NC(=O)C2=CC=CC=C2)CO)O)O

> <PUBCHEM_OPENEYE_ISO_SMILES>
CC(=O)N[C@@H]1[C@H]([C@@H]([C@H](O[C@H]1NC(=O)C2=CC=CC=C2)CO)O)O

> <PUBCHEM_CACTVS_TPSA>
128

> <PUBCHEM_MONOISOTOPIC_WEIGHT>
324.13213636

> <PUBCHEM_TOTAL_CHARGE>
0

> <PUBCHEM_HEAVY_ATOM_COUNT>
23

> <PUBCHEM_ATOM_DEF_STEREO_COUNT>
5

> <PUBCHEM_ATOM_UDEF_STEREO_COUNT>
0

> <PUBCHEM_BOND_DEF_STEREO_COUNT>
0

> <PUBCHEM_BOND_UDEF_STEREO_COUNT>
0

> <PUBCHEM_ISOTOPIC_ATOM_COUNT>
0

> <PUBCHEM_COMPONENT_COUNT>
1

> <PUBCHEM_CACTVS_TAUTO_COUNT>
-1

> <PUBCHEM_COORDINATE_TYPE>
1
5
255

> <PUBCHEM_BONDANNOTATIONS>
13  14  5
18  19  8
18  20  8
19  21  8
10  2  5
20  22  8
21  23  8
22  23  8
11  3  6
9  7  6
12  8  5

$$$$
