 
  -OEChem-10192104242D

 81 80  0     1  0  0  0  0  0999 V2000
    6.3301    1.0000    0.0000 O   0  0  0  0  0  0  0  0  0  0  0  0
    5.4641   -1.5000    0.0000 O   0  0  0  0  0  0  0  0  0  0  0  0
    3.7320   -0.5000    0.0000 O   0  0  0  0  0  0  0  0  0  0  0  0
    8.9282   -0.5000    0.0000 O   0  0  0  0  0  0  0  0  0  0  0  0
    7.1962   -1.5000    0.0000 O   0  0  0  0  0  0  0  0  0  0  0  0
    3.7320    1.5000    0.0000 O   0  0  0  0  0  0  0  0  0  0  0  0
    9.7942    1.0000    0.0000 O   0  0  0  0  0  0  0  0  0  0  0  0
    8.0622    1.0000    0.0000 O   0  0  0  0  0  0  0  0  0  0  0  0
    3.7320   -1.5000    0.0000 O   0  0  0  0  0  0  0  0  0  0  0  0
    2.8660    1.0000    0.0000 O   0  0  0  0  0  0  0  0  0  0  0  0
    4.5981    3.0000    0.0000 O   0  0  0  0  0  0  0  0  0  0  0  0
    6.3301   -0.0000    0.0000 C   0  0  3  0  0  0  0  0  0  0  0  0
    5.4641   -0.5000    0.0000 C   0  0  3  0  0  0  0  0  0  0  0  0
    7.1962   -0.5000    0.0000 C   0  0  3  0  0  0  0  0  0  0  0  0
    4.5981   -0.0000    0.0000 C   0  0  3  0  0  0  0  0  0  0  0  0
   14.1244   -0.5000    0.0000 C   0  0  0  0  0  0  0  0  0  0  0  0
   14.9904   -0.0000    0.0000 C   0  0  0  0  0  0  0  0  0  0  0  0
   13.2583   -0.0000    0.0000 C   0  0  0  0  0  0  0  0  0  0  0  0
   15.8564   -0.5000    0.0000 C   0  0  0  0  0  0  0  0  0  0  0  0
   12.3923   -0.5000    0.0000 C   0  0  0  0  0  0  0  0  0  0  0  0
    8.0622   -0.0000    0.0000 C   0  0  0  0  0  0  0  0  0  0  0  0
   16.7224   -0.0000    0.0000 C   0  0  0  0  0  0  0  0  0  0  0  0
   11.5263   -0.0000    0.0000 C   0  0  0  0  0  0  0  0  0  0  0  0
    4.5981    1.0000    0.0000 C   0  0  0  0  0  0  0  0  0  0  0  0
   17.5885   -0.5000    0.0000 C   0  0  0  0  0  0  0  0  0  0  0  0
   10.6603   -0.5000    0.0000 C   0  0  0  0  0  0  0  0  0  0  0  0
   18.4545   -0.0000    0.0000 C   0  0  0  0  0  0  0  0  0  0  0  0
    9.7942   -0.0000    0.0000 C   0  0  0  0  0  0  0  0  0  0  0  0
    7.1962    1.5000    0.0000 C   0  0  0  0  0  0  0  0  0  0  0  0
    4.5981   -2.0000    0.0000 C   0  0  0  0  0  0  0  0  0  0  0  0
   19.3205   -0.5000    0.0000 C   0  0  0  0  0  0  0  0  0  0  0  0
    2.8660   -0.0000    0.0000 C   0  0  0  0  0  0  0  0  0  0  0  0
    7.1962    2.5000    0.0000 C   0  0  0  0  0  0  0  0  0  0  0  0
    4.5981   -3.0000    0.0000 C   0  0  0  0  0  0  0  0  0  0  0  0
    3.7320    2.5000    0.0000 C   0  0  0  0  0  0  0  0  0  0  0  0
    2.0000   -0.5000    0.0000 C   0  0  0  0  0  0  0  0  0  0  0  0
    2.8660    3.0000    0.0000 C   0  0  0  0  0  0  0  0  0  0  0  0
    6.8671    0.3100    0.0000 H   0  0  0  0  0  0  0  0  0  0  0  0
    6.0010   -0.8100    0.0000 H   0  0  0  0  0  0  0  0  0  0  0  0
    6.6592   -0.8100    0.0000 H   0  0  0  0  0  0  0  0  0  0  0  0
    4.5981   -0.6200    0.0000 H   0  0  0  0  0  0  0  0  0  0  0  0
   13.7258   -0.9749    0.0000 H   0  0  0  0  0  0  0  0  0  0  0  0
   14.5229   -0.9749    0.0000 H   0  0  0  0  0  0  0  0  0  0  0  0
   15.3889    0.4749    0.0000 H   0  0  0  0  0  0  0  0  0  0  0  0
   14.5919    0.4749    0.0000 H   0  0  0  0  0  0  0  0  0  0  0  0
   13.6569    0.4749    0.0000 H   0  0  0  0  0  0  0  0  0  0  0  0
   12.8598    0.4749    0.0000 H   0  0  0  0  0  0  0  0  0  0  0  0
   15.4579   -0.9749    0.0000 H   0  0  0  0  0  0  0  0  0  0  0  0
   16.2549   -0.9749    0.0000 H   0  0  0  0  0  0  0  0  0  0  0  0
   11.9938   -0.9749    0.0000 H   0  0  0  0  0  0  0  0  0  0  0  0
   12.7908   -0.9749    0.0000 H   0  0  0  0  0  0  0  0  0  0  0  0
    8.4607    0.4749    0.0000 H   0  0  0  0  0  0  0  0  0  0  0  0
    7.6636    0.4749    0.0000 H   0  0  0  0  0  0  0  0  0  0  0  0
   17.1210    0.4749    0.0000 H   0  0  0  0  0  0  0  0  0  0  0  0
   16.3239    0.4749    0.0000 H   0  0  0  0  0  0  0  0  0  0  0  0
   11.9248    0.4749    0.0000 H   0  0  0  0  0  0  0  0  0  0  0  0
   11.1278    0.4749    0.0000 H   0  0  0  0  0  0  0  0  0  0  0  0
    5.2087    0.8923    0.0000 H   0  0  0  0  0  0  0  0  0  0  0  0
    4.8101    1.5826    0.0000 H   0  0  0  0  0  0  0  0  0  0  0  0
   17.1899   -0.9749    0.0000 H   0  0  0  0  0  0  0  0  0  0  0  0
   17.9870   -0.9749    0.0000 H   0  0  0  0  0  0  0  0  0  0  0  0
   10.2617   -0.9749    0.0000 H   0  0  0  0  0  0  0  0  0  0  0  0
   11.0588   -0.9749    0.0000 H   0  0  0  0  0  0  0  0  0  0  0  0
   18.8530    0.4749    0.0000 H   0  0  0  0  0  0  0  0  0  0  0  0
   18.0560    0.4749    0.0000 H   0  0  0  0  0  0  0  0  0  0  0  0
    7.7331   -1.8100    0.0000 H   0  0  0  0  0  0  0  0  0  0  0  0
   19.0105   -1.0369    0.0000 H   0  0  0  0  0  0  0  0  0  0  0  0
   19.8574   -0.8100    0.0000 H   0  0  0  0  0  0  0  0  0  0  0  0
   19.6305    0.0369    0.0000 H   0  0  0  0  0  0  0  0  0  0  0  0
    7.8162    2.5000    0.0000 H   0  0  0  0  0  0  0  0  0  0  0  0
    7.1962    3.1200    0.0000 H   0  0  0  0  0  0  0  0  0  0  0  0
    6.5762    2.5000    0.0000 H   0  0  0  0  0  0  0  0  0  0  0  0
    3.9781   -3.0000    0.0000 H   0  0  0  0  0  0  0  0  0  0  0  0
    4.5981   -3.6200    0.0000 H   0  0  0  0  0  0  0  0  0  0  0  0
    5.2181   -3.0000    0.0000 H   0  0  0  0  0  0  0  0  0  0  0  0
    1.6900    0.0369    0.0000 H   0  0  0  0  0  0  0  0  0  0  0  0
    1.4631   -0.8100    0.0000 H   0  0  0  0  0  0  0  0  0  0  0  0
    2.3100   -1.0369    0.0000 H   0  0  0  0  0  0  0  0  0  0  0  0
    3.1760    3.5369    0.0000 H   0  0  0  0  0  0  0  0  0  0  0  0
    2.3291    3.3100    0.0000 H   0  0  0  0  0  0  0  0  0  0  0  0
    2.5560    2.4631    0.0000 H   0  0  0  0  0  0  0  0  0  0  0  0
  1 12  1  0  0  0  0
  1 29  1  0  0  0  0
  2 13  1  0  0  0  0
  2 30  1  0  0  0  0
  3 15  1  0  0  0  0
  3 32  1  0  0  0  0
  4 21  1  0  0  0  0
  4 28  1  0  0  0  0
  5 14  1  0  0  0  0
  5 66  1  0  0  0  0
  6 24  1  0  0  0  0
  6 35  1  0  0  0  0
  7 28  2  0  0  0  0
  8 29  2  0  0  0  0
  9 30  2  0  0  0  0
 10 32  2  0  0  0  0
 11 35  2  0  0  0  0
 12 13  1  0  0  0  0
 12 14  1  0  0  0  0
 12 38  1  0  0  0  0
 13 15  1  0  0  0  0
 13 39  1  0  0  0  0
 14 21  1  0  0  0  0
 14 40  1  0  0  0  0
 15 24  1  0  0  0  0
 15 41  1  0  0  0  0
 16 17  1  0  0  0  0
 16 18  1  0  0  0  0
 16 42  1  0  0  0  0
 16 43  1  0  0  0  0
 17 19  1  0  0  0  0
 17 44  1  0  0  0  0
 17 45  1  0  0  0  0
 18 20  1  0  0  0  0
 18 46  1  0  0  0  0
 18 47  1  0  0  0  0
 19 22  1  0  0  0  0
 19 48  1  0  0  0  0
 19 49  1  0  0  0  0
 20 23  1  0  0  0  0
 20 50  1  0  0  0  0
 20 51  1  0  0  0  0
 21 52  1  0  0  0  0
 21 53  1  0  0  0  0
 22 25  1  0  0  0  0
 22 54  1  0  0  0  0
 22 55  1  0  0  0  0
 23 26  1  0  0  0  0
 23 56  1  0  0  0  0
 23 57  1  0  0  0  0
 24 58  1  0  0  0  0
 24 59  1  0  0  0  0
 25 27  1  0  0  0  0
 25 60  1  0  0  0  0
 25 61  1  0  0  0  0
 26 28  1  0  0  0  0
 26 62  1  0  0  0  0
 26 63  1  0  0  0  0
 27 31  1  0  0  0  0
 27 64  1  0  0  0  0
 27 65  1  0  0  0  0
 29 33  1  0  0  0  0
 30 34  1  0  0  0  0
 31 67  1  0  0  0  0
 31 68  1  0  0  0  0
 31 69  1  0  0  0  0
 32 36  1  0  0  0  0
 33 70  1  0  0  0  0
 33 71  1  0  0  0  0
 33 72  1  0  0  0  0
 34 73  1  0  0  0  0
 34 74  1  0  0  0  0
 34 75  1  0  0  0  0
 35 37  1  0  0  0  0
 36 76  1  0  0  0  0
 36 77  1  0  0  0  0
 36 78  1  0  0  0  0
 37 79  1  0  0  0  0
 37 80  1  0  0  0  0
 37 81  1  0  0  0  0
M  END
> <PUBCHEM_COMPOUND_CID>
57596246

> <PUBCHEM_COMPOUND_CANONICALIZED>
1

> <PUBCHEM_CACTVS_COMPLEXITY>
707

> <PUBCHEM_CACTVS_HBOND_ACCEPTOR>
11

> <PUBCHEM_CACTVS_HBOND_DONOR>
1

> <PUBCHEM_CACTVS_ROTATABLE_BOND>
25

> <PUBCHEM_CACTVS_SUBSKEYS>
AAADcfB4PAAAAAAAAAAAAAAAAAAAAAAAAAAAAAAAAAAAAAAAAAAAGgAACAAACBSggAICCAAABgAIAACQCAAAAAAAAAAAAAEAAAABEBIAAAACQAAFAAADAAHI6KyAAAAAAAAAAAAAAAAAAAAAAAAAAAAAAA==

> <PUBCHEM_IUPAC_OPENEYE_NAME>
(3,4,5,6-tetraacetoxy-2-hydroxy-hexyl) dodecanoate

> <PUBCHEM_IUPAC_CAS_NAME>
dodecanoic acid (3,4,5,6-tetraacetyloxy-2-hydroxyhexyl) ester

> <PUBCHEM_IUPAC_NAME_MARKUP>
(3,4,5,6-tetraacetyloxy-2-hydroxyhexyl) dodecanoate

> <PUBCHEM_IUPAC_NAME>
(3,4,5,6-tetraacetyloxy-2-hydroxyhexyl) dodecanoate

> <PUBCHEM_IUPAC_SYSTEMATIC_NAME>
(3,4,5,6-tetraacetyloxy-2-oxidanyl-hexyl) dodecanoate

> <PUBCHEM_IUPAC_TRADITIONAL_NAME>
lauric acid (3,4,5,6-tetraacetoxy-2-hydroxy-hexyl) ester

> <PUBCHEM_IUPAC_INCHI>
InChI=1S/C26H44O11/c1-6-7-8-9-10-11-12-13-14-15-24(32)34-16-22(31)25(36-20(4)29)26(37-21(5)30)23(35-19(3)28)17-33-18(2)27/h22-23,25-26,31H,6-17H2,1-5H3

> <PUBCHEM_IUPAC_INCHIKEY>
COIYXECSRVCSDC-UHFFFAOYSA-N

> <PUBCHEM_XLOGP3_AA>
4.4

> <PUBCHEM_EXACT_MASS>
532.28836222

> <PUBCHEM_MOLECULAR_FORMULA>
C26H44O11

> <PUBCHEM_MOLECULAR_WEIGHT>
532.6

> <PUBCHEM_OPENEYE_CAN_SMILES>
CCCCCCCCCCCC(=O)OCC(C(C(C(COC(=O)C)OC(=O)C)OC(=O)C)OC(=O)C)O

> <PUBCHEM_OPENEYE_ISO_SMILES>
CCCCCCCCCCCC(=O)OCC(C(C(C(COC(=O)C)OC(=O)C)OC(=O)C)OC(=O)C)O

> <PUBCHEM_CACTVS_TPSA>
152

> <PUBCHEM_MONOISOTOPIC_WEIGHT>
532.28836222

> <PUBCHEM_TOTAL_CHARGE>
0

> <PUBCHEM_HEAVY_ATOM_COUNT>
37

> <PUBCHEM_ATOM_DEF_STEREO_COUNT>
0

> <PUBCHEM_ATOM_UDEF_STEREO_COUNT>
4

> <PUBCHEM_BOND_DEF_STEREO_COUNT>
0

> <PUBCHEM_BOND_UDEF_STEREO_COUNT>
0

> <PUBCHEM_ISOTOPIC_ATOM_COUNT>
0

> <PUBCHEM_COMPONENT_COUNT>
1

> <PUBCHEM_CACTVS_TAUTO_COUNT>
-1

> <PUBCHEM_COORDINATE_TYPE>
1
5
255

> <PUBCHEM_BONDANNOTATIONS>
12  1  3
15  24  3
13  2  3
14  5  3

$$$$
