 
  -OEChem-10192104102D

 76 80  0     1  0  0  0  0  0999 V2000
    2.8660   -1.8844    0.0000 O   0  0  0  0  0  0  0  0  0  0  0  0
    8.0622   -1.8844    0.0000 O   0  0  0  0  0  0  0  0  0  0  0  0
    4.5981    0.1156    0.0000 O   0  0  0  0  0  0  0  0  0  0  0  0
    6.3301   -2.8844    0.0000 O   0  0  0  0  0  0  0  0  0  0  0  0
    9.7942   -2.8844    0.0000 O   0  0  0  0  0  0  0  0  0  0  0  0
    8.0622    1.1156    0.0000 O   0  0  0  0  0  0  0  0  0  0  0  0
   15.8564   -0.3844    0.0000 O   0  5  0  0  0  0  0  0  0  0  0  0
   14.9904    1.1156    0.0000 O   0  0  0  0  0  0  0  0  0  0  0  0
    5.4641   -1.3844    0.0000 N   0  0  0  0  0  0  0  0  0  0  0  0
    2.8660    0.1156    0.0000 N   0  0  0  0  0  0  0  0  0  0  0  0
   10.6603   -1.3844    0.0000 N   0  0  0  0  0  0  0  0  0  0  0  0
   14.9904    0.1156    0.0000 N   0  3  0  0  0  0  0  0  0  0  0  0
    4.7026    4.1101    0.0000 N   0  0  0  0  0  0  0  0  0  0  0  0
    5.5116    2.7088    0.0000 N   0  0  0  0  0  0  0  0  0  0  0  0
    5.6808    4.3180    0.0000 N   0  0  0  0  0  0  0  0  0  0  0  0
    6.1808    3.4520    0.0000 N   0  0  0  0  0  0  0  0  0  0  0  0
    4.5981   -1.8844    0.0000 C   0  0  1  0  0  0  0  0  0  0  0  0
    4.5981   -2.8844    0.0000 C   0  0  0  0  0  0  0  0  0  0  0  0
    3.7320   -1.3844    0.0000 C   0  0  1  0  0  0  0  0  0  0  0  0
    3.7320   -3.3844    0.0000 C   0  0  0  0  0  0  0  0  0  0  0  0
    3.7320   -0.3844    0.0000 C   0  0  0  0  0  0  0  0  0  0  0  0
    6.3301   -1.8844    0.0000 C   0  0  0  0  0  0  0  0  0  0  0  0
    3.7320   -4.3844    0.0000 C   0  0  0  0  0  0  0  0  0  0  0  0
    2.8660   -2.8844    0.0000 C   0  0  0  0  0  0  0  0  0  0  0  0
    7.1962   -1.3844    0.0000 C   0  0  0  0  0  0  0  0  0  0  0  0
   11.5263   -1.8844    0.0000 C   0  0  1  0  0  0  0  0  0  0  0  0
    2.8660   -4.8844    0.0000 C   0  0  0  0  0  0  0  0  0  0  0  0
    2.0000   -3.3844    0.0000 C   0  0  0  0  0  0  0  0  0  0  0  0
    2.8660    1.1156    0.0000 C   0  0  0  0  0  0  0  0  0  0  0  0
    2.0000   -4.3844    0.0000 C   0  0  0  0  0  0  0  0  0  0  0  0
   12.3923   -1.3844    0.0000 C   0  0  0  0  0  0  0  0  0  0  0  0
    8.9282   -1.3844    0.0000 C   0  0  0  0  0  0  0  0  0  0  0  0
    7.1962   -0.3844    0.0000 C   0  0  0  0  0  0  0  0  0  0  0  0
   11.5263   -2.8844    0.0000 C   0  0  0  0  0  0  0  0  0  0  0  0
    9.7942   -1.8844    0.0000 C   0  0  0  0  0  0  0  0  0  0  0  0
    3.7320    1.6156    0.0000 C   0  0  0  0  0  0  0  0  0  0  0  0
    2.0000    1.6156    0.0000 C   0  0  0  0  0  0  0  0  0  0  0  0
   12.3923   -0.3844    0.0000 C   0  0  0  0  0  0  0  0  0  0  0  0
   13.2583   -1.8844    0.0000 C   0  0  0  0  0  0  0  0  0  0  0  0
    8.9282   -0.3844    0.0000 C   0  0  0  0  0  0  0  0  0  0  0  0
    8.0622    0.1156    0.0000 C   0  0  0  0  0  0  0  0  0  0  0  0
    3.7320    2.6156    0.0000 C   0  0  0  0  0  0  0  0  0  0  0  0
    2.0000    2.6156    0.0000 C   0  0  0  0  0  0  0  0  0  0  0  0
   13.2583    0.1156    0.0000 C   0  0  0  0  0  0  0  0  0  0  0  0
   14.1244   -1.3844    0.0000 C   0  0  0  0  0  0  0  0  0  0  0  0
   14.1244   -0.3844    0.0000 C   0  0  0  0  0  0  0  0  0  0  0  0
    2.8660    3.1156    0.0000 C   0  0  0  0  0  0  0  0  0  0  0  0
    4.5981    3.1156    0.0000 C   0  0  0  0  0  0  0  0  0  0  0  0
    4.5981   -1.2644    0.0000 H   0  0  0  0  0  0  0  0  0  0  0  0
    4.8101   -3.4670    0.0000 H   0  0  0  0  0  0  0  0  0  0  0  0
    5.2087   -2.7768    0.0000 H   0  0  0  0  0  0  0  0  0  0  0  0
    3.7320   -2.0044    0.0000 H   0  0  0  0  0  0  0  0  0  0  0  0
    5.4641   -0.7644    0.0000 H   0  0  0  0  0  0  0  0  0  0  0  0
    4.2690   -4.6944    0.0000 H   0  0  0  0  0  0  0  0  0  0  0  0
    2.8660   -2.2644    0.0000 H   0  0  0  0  0  0  0  0  0  0  0  0
    2.3291   -1.5744    0.0000 H   0  0  0  0  0  0  0  0  0  0  0  0
    2.3291   -0.1944    0.0000 H   0  0  0  0  0  0  0  0  0  0  0  0
   10.9893   -2.1944    0.0000 H   0  0  0  0  0  0  0  0  0  0  0  0
    2.8660   -5.5044    0.0000 H   0  0  0  0  0  0  0  0  0  0  0  0
    1.4631   -3.0744    0.0000 H   0  0  0  0  0  0  0  0  0  0  0  0
    1.4631   -4.6944    0.0000 H   0  0  0  0  0  0  0  0  0  0  0  0
   10.6603   -0.7644    0.0000 H   0  0  0  0  0  0  0  0  0  0  0  0
    6.6592   -0.0744    0.0000 H   0  0  0  0  0  0  0  0  0  0  0  0
   10.9063   -2.8844    0.0000 H   0  0  0  0  0  0  0  0  0  0  0  0
   11.5263   -3.5044    0.0000 H   0  0  0  0  0  0  0  0  0  0  0  0
   12.1463   -2.8844    0.0000 H   0  0  0  0  0  0  0  0  0  0  0  0
    4.2690    1.3056    0.0000 H   0  0  0  0  0  0  0  0  0  0  0  0
    1.4631    1.3056    0.0000 H   0  0  0  0  0  0  0  0  0  0  0  0
   11.8554   -0.0744    0.0000 H   0  0  0  0  0  0  0  0  0  0  0  0
   13.2583   -2.5044    0.0000 H   0  0  0  0  0  0  0  0  0  0  0  0
    9.4651   -0.0744    0.0000 H   0  0  0  0  0  0  0  0  0  0  0  0
   13.2583    0.7356    0.0000 H   0  0  0  0  0  0  0  0  0  0  0  0
   14.6613   -1.6944    0.0000 H   0  0  0  0  0  0  0  0  0  0  0  0
    1.4631    2.9256    0.0000 H   0  0  0  0  0  0  0  0  0  0  0  0
    2.8660    3.7356    0.0000 H   0  0  0  0  0  0  0  0  0  0  0  0
    5.9329    4.8844    0.0000 H   0  0  0  0  0  0  0  0  0  0  0  0
 19  1  1  6  0  0  0
  1 56  1  0  0  0  0
  2 25  1  0  0  0  0
  2 32  1  0  0  0  0
  3 21  2  0  0  0  0
  4 22  2  0  0  0  0
  5 35  2  0  0  0  0
  6 41  2  0  0  0  0
  7 12  1  0  0  0  0
  8 12  2  0  0  0  0
 17  9  1  1  0  0  0
  9 22  1  0  0  0  0
  9 53  1  0  0  0  0
 10 21  1  0  0  0  0
 10 29  1  0  0  0  0
 10 57  1  0  0  0  0
 26 11  1  1  0  0  0
 11 35  1  0  0  0  0
 11 62  1  0  0  0  0
 12 46  1  0  0  0  0
 13 15  1  0  0  0  0
 13 48  2  0  0  0  0
 14 16  2  0  0  0  0
 14 48  1  0  0  0  0
 15 16  1  0  0  0  0
 15 76  1  0  0  0  0
 17 18  1  0  0  0  0
 17 19  1  0  0  0  0
 17 49  1  0  0  0  0
 18 20  1  0  0  0  0
 18 50  1  0  0  0  0
 18 51  1  0  0  0  0
 19 21  1  0  0  0  0
 19 52  1  0  0  0  0
 20 23  2  0  0  0  0
 20 24  1  0  0  0  0
 22 25  1  0  0  0  0
 23 27  1  0  0  0  0
 23 54  1  0  0  0  0
 24 28  2  0  0  0  0
 24 55  1  0  0  0  0
 25 33  2  0  0  0  0
 26 31  1  0  0  0  0
 26 34  1  0  0  0  0
 26 58  1  0  0  0  0
 27 30  2  0  0  0  0
 27 59  1  0  0  0  0
 28 30  1  0  0  0  0
 28 60  1  0  0  0  0
 29 36  1  0  0  0  0
 29 37  2  0  0  0  0
 30 61  1  0  0  0  0
 31 38  2  0  0  0  0
 31 39  1  0  0  0  0
 32 35  1  0  0  0  0
 32 40  2  0  0  0  0
 33 41  1  0  0  0  0
 33 63  1  0  0  0  0
 34 64  1  0  0  0  0
 34 65  1  0  0  0  0
 34 66  1  0  0  0  0
 36 42  2  0  0  0  0
 36 67  1  0  0  0  0
 37 43  1  0  0  0  0
 37 68  1  0  0  0  0
 38 44  1  0  0  0  0
 38 69  1  0  0  0  0
 39 45  2  0  0  0  0
 39 70  1  0  0  0  0
 40 41  1  0  0  0  0
 40 71  1  0  0  0  0
 42 47  1  0  0  0  0
 42 48  1  0  0  0  0
 43 47  2  0  0  0  0
 43 74  1  0  0  0  0
 44 46  2  0  0  0  0
 44 72  1  0  0  0  0
 45 46  1  0  0  0  0
 45 73  1  0  0  0  0
 47 75  1  0  0  0  0
M  CHG  2   7  -1  12   1
M  END
> <PUBCHEM_COMPOUND_CID>
59356728

> <PUBCHEM_COMPOUND_CANONICALIZED>
1

> <PUBCHEM_CACTVS_COMPLEXITY>
1260

> <PUBCHEM_CACTVS_HBOND_ACCEPTOR>
11

> <PUBCHEM_CACTVS_HBOND_DONOR>
5

> <PUBCHEM_CACTVS_ROTATABLE_BOND>
11

> <PUBCHEM_CACTVS_SUBSKEYS>
AAADceB//AAAAAAAAAAAAAAAAAAAAWAAAAAwYMEAAAAAAAAB1AAAHgAcCAAADDzhmwYz0IbSRgCrAqdycwKCCAIhIgA8qKFoZNoKMLrA0ZWHYAhklgDYyYeYyKCOCAAAQAAAAAAQAACAAAAAAAAAAAAAAA==

> <PUBCHEM_IUPAC_OPENEYE_NAME>
N2-[(1S,2S)-1-benzyl-2-hydroxy-3-oxo-3-[3-(2H-tetrazol-5-yl)anilino]propyl]-N6-[(1R)-1-(4-nitrophenyl)ethyl]-4-oxo-pyran-2,6-dicarboxamide

> <PUBCHEM_IUPAC_CAS_NAME>
N2-[(2S,3S)-3-hydroxy-4-oxo-1-phenyl-4-[3-(2H-tetrazol-5-yl)anilino]butan-2-yl]-N6-[(1R)-1-(4-nitrophenyl)ethyl]-4-oxopyran-2,6-dicarboxamide

> <PUBCHEM_IUPAC_NAME_MARKUP>
2-<I>N</I>-[(2<I>S</I>,3<I>S</I>)-3-hydroxy-4-oxo-1-phenyl-4-[3-(2<I>H</I>-tetrazol-5-yl)anilino]butan-2-yl]-6-<I>N</I>-[(1<I>R</I>)-1-(4-nitrophenyl)ethyl]-4-oxopyran-2,6-dicarboxamide

> <PUBCHEM_IUPAC_NAME>
2-N-[(2S,3S)-3-hydroxy-4-oxo-1-phenyl-4-[3-(2H-tetrazol-5-yl)anilino]butan-2-yl]-6-N-[(1R)-1-(4-nitrophenyl)ethyl]-4-oxopyran-2,6-dicarboxamide

> <PUBCHEM_IUPAC_SYSTEMATIC_NAME>
N6-[(1R)-1-(4-nitrophenyl)ethyl]-4-oxidanylidene-N2-[(2S,3S)-3-oxidanyl-4-oxidanylidene-1-phenyl-4-[[3-(2H-1,2,3,4-tetrazol-5-yl)phenyl]amino]butan-2-yl]pyran-2,6-dicarboxamide

> <PUBCHEM_IUPAC_TRADITIONAL_NAME>
N-[(1S,2S)-1-benzyl-2-hydroxy-3-keto-3-[3-(2H-tetrazol-5-yl)anilino]propyl]-4-keto-N'-[(1R)-1-(4-nitrophenyl)ethyl]pyran-2,6-dicarboxamide

> <PUBCHEM_IUPAC_INCHI>
InChI=1S/C32H28N8O8/c1-18(20-10-12-23(13-11-20)40(46)47)33-30(43)26-16-24(41)17-27(48-26)31(44)35-25(14-19-6-3-2-4-7-19)28(42)32(45)34-22-9-5-8-21(15-22)29-36-38-39-37-29/h2-13,15-18,25,28,42H,14H2,1H3,(H,33,43)(H,34,45)(H,35,44)(H,36,37,38,39)/t18-,25+,28+/m1/s1

> <PUBCHEM_IUPAC_INCHIKEY>
CQJQZBYMLGRWBC-BBSHIGFISA-N

> <PUBCHEM_XLOGP3_AA>
2.3

> <PUBCHEM_EXACT_MASS>
652.20300988

> <PUBCHEM_MOLECULAR_FORMULA>
C32H28N8O8

> <PUBCHEM_MOLECULAR_WEIGHT>
652.6

> <PUBCHEM_OPENEYE_CAN_SMILES>
CC(C1=CC=C(C=C1)[N+](=O)[O-])NC(=O)C2=CC(=O)C=C(O2)C(=O)NC(CC3=CC=CC=C3)C(C(=O)NC4=CC=CC(=C4)C5=NNN=N5)O

> <PUBCHEM_OPENEYE_ISO_SMILES>
C[C@H](C1=CC=C(C=C1)[N+](=O)[O-])NC(=O)C2=CC(=O)C=C(O2)C(=O)N[C@@H](CC3=CC=CC=C3)[C@@H](C(=O)NC4=CC=CC(=C4)C5=NNN=N5)O

> <PUBCHEM_CACTVS_TPSA>
234

> <PUBCHEM_MONOISOTOPIC_WEIGHT>
652.20300988

> <PUBCHEM_TOTAL_CHARGE>
0

> <PUBCHEM_HEAVY_ATOM_COUNT>
48

> <PUBCHEM_ATOM_DEF_STEREO_COUNT>
3

> <PUBCHEM_ATOM_UDEF_STEREO_COUNT>
0

> <PUBCHEM_BOND_DEF_STEREO_COUNT>
0

> <PUBCHEM_BOND_UDEF_STEREO_COUNT>
0

> <PUBCHEM_ISOTOPIC_ATOM_COUNT>
0

> <PUBCHEM_COMPONENT_COUNT>
1

> <PUBCHEM_CACTVS_TAUTO_COUNT>
-1

> <PUBCHEM_COORDINATE_TYPE>
1
5
255

> <PUBCHEM_BONDANNOTATIONS>
19  1  6
26  11  5
13  15  8
13  48  8
14  16  8
14  48  8
15  16  8
2  25  8
2  32  8
20  23  8
20  24  8
23  27  8
24  28  8
25  33  8
27  30  8
28  30  8
29  36  8
29  37  8
31  38  8
31  39  8
32  40  8
33  41  8
36  42  8
37  43  8
38  44  8
39  45  8
40  41  8
42  47  8
43  47  8
44  46  8
45  46  8
17  9  5

$$$$
