 
  -OEChem-10192104122D

 32 31  0     1  0  0  0  0  0999 V2000
    8.0622   -1.2500    0.0000 O   0  0  0  0  0  0  0  0  0  0  0  0
    8.9282    1.2500    0.0000 O   0  0  0  0  0  0  0  0  0  0  0  0
    7.1962    1.2500    0.0000 O   0  0  0  0  0  0  0  0  0  0  0  0
    5.4641    0.2500    0.0000 O   0  0  0  0  0  0  0  0  0  0  0  0
   10.6603    0.2500    0.0000 O   0  0  0  0  0  0  0  0  0  0  0  0
    2.0000   -0.7500    0.0000 N   0  0  0  0  0  0  0  0  0  0  0  0
    8.0622   -0.2500    0.0000 C   0  0  2  0  0  0  0  0  0  0  0  0
    8.9282    0.2500    0.0000 C   0  0  2  0  0  0  0  0  0  0  0  0
    7.1962    0.2500    0.0000 C   0  0  2  0  0  0  0  0  0  0  0  0
    9.7942   -0.2500    0.0000 C   0  0  2  0  0  0  0  0  0  0  0  0
    6.3301   -0.2500    0.0000 C   0  0  0  0  0  0  0  0  0  0  0  0
    9.7942   -1.2500    0.0000 C   0  0  0  0  0  0  0  0  0  0  0  0
    4.5981   -0.2500    0.0000 C   0  0  0  0  0  0  0  0  0  0  0  0
    3.7320    0.2500    0.0000 C   0  0  0  0  0  0  0  0  0  0  0  0
    2.8660   -0.2500    0.0000 C   0  0  0  0  0  0  0  0  0  0  0  0
    7.5252   -0.5600    0.0000 H   0  0  0  0  0  0  0  0  0  0  0  0
    9.4651    0.5600    0.0000 H   0  0  0  0  0  0  0  0  0  0  0  0
    6.6592    0.5600    0.0000 H   0  0  0  0  0  0  0  0  0  0  0  0
   10.3312   -0.5600    0.0000 H   0  0  0  0  0  0  0  0  0  0  0  0
    5.9316   -0.7249    0.0000 H   0  0  0  0  0  0  0  0  0  0  0  0
    6.7287   -0.7249    0.0000 H   0  0  0  0  0  0  0  0  0  0  0  0
    9.1742   -1.2500    0.0000 H   0  0  0  0  0  0  0  0  0  0  0  0
    9.7942   -1.8700    0.0000 H   0  0  0  0  0  0  0  0  0  0  0  0
   10.4142   -1.2500    0.0000 H   0  0  0  0  0  0  0  0  0  0  0  0
    7.5252   -1.5600    0.0000 H   0  0  0  0  0  0  0  0  0  0  0  0
    9.4651    1.5600    0.0000 H   0  0  0  0  0  0  0  0  0  0  0  0
    6.6592    1.5600    0.0000 H   0  0  0  0  0  0  0  0  0  0  0  0
   11.1972   -0.0600    0.0000 H   0  0  0  0  0  0  0  0  0  0  0  0
    4.1996   -0.7249    0.0000 H   0  0  0  0  0  0  0  0  0  0  0  0
    4.9966   -0.7249    0.0000 H   0  0  0  0  0  0  0  0  0  0  0  0
    4.1306    0.7249    0.0000 H   0  0  0  0  0  0  0  0  0  0  0  0
    3.3335    0.7249    0.0000 H   0  0  0  0  0  0  0  0  0  0  0  0
  7  1  1  1  0  0  0
  1 25  1  0  0  0  0
  8  2  1  1  0  0  0
  2 26  1  0  0  0  0
  9  3  1  6  0  0  0
  3 27  1  0  0  0  0
  4 11  1  0  0  0  0
  4 13  1  0  0  0  0
 10  5  1  1  0  0  0
  5 28  1  0  0  0  0
  6 15  3  0  0  0  0
  7  8  1  0  0  0  0
  7  9  1  0  0  0  0
  7 16  1  0  0  0  0
  8 10  1  0  0  0  0
  8 17  1  0  0  0  0
  9 11  1  0  0  0  0
  9 18  1  0  0  0  0
 10 12  1  0  0  0  0
 10 19  1  0  0  0  0
 11 20  1  0  0  0  0
 11 21  1  0  0  0  0
 12 22  1  0  0  0  0
 12 23  1  0  0  0  0
 12 24  1  0  0  0  0
 13 14  1  0  0  0  0
 13 29  1  0  0  0  0
 13 30  1  0  0  0  0
 14 15  1  0  0  0  0
 14 31  1  0  0  0  0
 14 32  1  0  0  0  0
M  END
> <PUBCHEM_COMPOUND_CID>
88489458

> <PUBCHEM_COMPOUND_CANONICALIZED>
1

> <PUBCHEM_CACTVS_COMPLEXITY>
214

> <PUBCHEM_CACTVS_HBOND_ACCEPTOR>
6

> <PUBCHEM_CACTVS_HBOND_DONOR>
4

> <PUBCHEM_CACTVS_ROTATABLE_BOND>
7

> <PUBCHEM_CACTVS_SUBSKEYS>
AAADceByOAAAAAAAAAAAAAAAAAAAAAAAAAAAAAAAAAAAAAAAAAAAHgAACAAACBShgAICAAAABgAQBAAAAAAAAAAAAAAAAAAAAAABkAIAAAACQAAFAAADAAHAYAwAAAAAAAAAAAAAAAAAAAAAAAAAAAAAAA==

> <PUBCHEM_IUPAC_OPENEYE_NAME>
3-[(2S,3S,4S,5S)-2,3,4,5-tetrahydroxyhexoxy]propanenitrile

> <PUBCHEM_IUPAC_CAS_NAME>
3-[(2S,3S,4S,5S)-2,3,4,5-tetrahydroxyhexoxy]propanenitrile

> <PUBCHEM_IUPAC_NAME_MARKUP>
3-[(2<I>S</I>,3<I>S</I>,4<I>S</I>,5<I>S</I>)-2,3,4,5-tetrahydroxyhexoxy]propanenitrile

> <PUBCHEM_IUPAC_NAME>
3-[(2S,3S,4S,5S)-2,3,4,5-tetrahydroxyhexoxy]propanenitrile

> <PUBCHEM_IUPAC_SYSTEMATIC_NAME>
3-[(2S,3S,4S,5S)-2,3,4,5-tetrakis(oxidanyl)hexoxy]propanenitrile

> <PUBCHEM_IUPAC_TRADITIONAL_NAME>
3-[(2S,3S,4S,5S)-2,3,4,5-tetrahydroxyhexoxy]propionitrile

> <PUBCHEM_IUPAC_INCHI>
InChI=1S/C9H17NO5/c1-6(11)8(13)9(14)7(12)5-15-4-2-3-10/h6-9,11-14H,2,4-5H2,1H3/t6-,7-,8-,9-/m0/s1

> <PUBCHEM_IUPAC_INCHIKEY>
AWOUQXKOYNQVNT-JBDRJPRFSA-N

> <PUBCHEM_XLOGP3_AA>
-2.3

> <PUBCHEM_EXACT_MASS>
219.11067264

> <PUBCHEM_MOLECULAR_FORMULA>
C9H17NO5

> <PUBCHEM_MOLECULAR_WEIGHT>
219.23

> <PUBCHEM_OPENEYE_CAN_SMILES>
CC(C(C(C(COCCC#N)O)O)O)O

> <PUBCHEM_OPENEYE_ISO_SMILES>
C[C@@H]([C@@H]([C@H]([C@H](COCCC#N)O)O)O)O

> <PUBCHEM_CACTVS_TPSA>
114

> <PUBCHEM_MONOISOTOPIC_WEIGHT>
219.11067264

> <PUBCHEM_TOTAL_CHARGE>
0

> <PUBCHEM_HEAVY_ATOM_COUNT>
15

> <PUBCHEM_ATOM_DEF_STEREO_COUNT>
4

> <PUBCHEM_ATOM_UDEF_STEREO_COUNT>
0

> <PUBCHEM_BOND_DEF_STEREO_COUNT>
0

> <PUBCHEM_BOND_UDEF_STEREO_COUNT>
0

> <PUBCHEM_ISOTOPIC_ATOM_COUNT>
0

> <PUBCHEM_COMPONENT_COUNT>
1

> <PUBCHEM_CACTVS_TAUTO_COUNT>
-1

> <PUBCHEM_COORDINATE_TYPE>
1
5
255

> <PUBCHEM_BONDANNOTATIONS>
7  1  5
8  2  5
9  3  6
10  5  5

$$$$
