 
  -OEChem-10192104142D

 69 72  0     1  0  0  0  0  0999 V2000
    9.7942   -2.0950    0.0000 O   0  0  0  0  0  0  0  0  0  0  0  0
    8.9282   -0.5950    0.0000 O   0  0  0  0  0  0  0  0  0  0  0  0
    8.0622   -2.0950    0.0000 O   0  0  0  0  0  0  0  0  0  0  0  0
   11.5263   -1.0950    0.0000 O   0  0  0  0  0  0  0  0  0  0  0  0
    9.7942   -4.0950    0.0000 O   0  0  0  0  0  0  0  0  0  0  0  0
   11.5263    0.9050    0.0000 O   0  0  0  0  0  0  0  0  0  0  0  0
    8.0622   -5.0950    0.0000 O   0  0  0  0  0  0  0  0  0  0  0  0
    9.7942    1.9050    0.0000 O   0  0  0  0  0  0  0  0  0  0  0  0
    6.3301   -4.0950    0.0000 O   0  0  0  0  0  0  0  0  0  0  0  0
    8.0622    1.9050    0.0000 O   0  0  0  0  0  0  0  0  0  0  0  0
    5.4641   -2.5950    0.0000 O   0  0  0  0  0  0  0  0  0  0  0  0
    6.3301    1.9050    0.0000 O   0  0  0  0  0  0  0  0  0  0  0  0
    4.5981   -1.0950    0.0000 O   0  0  0  0  0  0  0  0  0  0  0  0
    9.7942   -1.0950    0.0000 C   0  0  1  0  0  0  0  0  0  0  0  0
    8.9282   -2.5950    0.0000 C   0  0  1  0  0  0  0  0  0  0  0  0
   10.6603   -0.5950    0.0000 C   0  0  1  0  0  0  0  0  0  0  0  0
    8.9282   -3.5950    0.0000 C   0  0  1  0  0  0  0  0  0  0  0  0
   10.6603    0.4050    0.0000 C   0  0  2  0  0  0  0  0  0  0  0  0
    8.0622   -4.0950    0.0000 C   0  0  2  0  0  0  0  0  0  0  0  0
    9.7942    0.9050    0.0000 C   0  0  1  0  0  0  0  0  0  0  0  0
    7.1962   -3.5950    0.0000 C   0  0  1  0  0  0  0  0  0  0  0  0
    8.9282    0.4050    0.0000 C   0  0  1  0  0  0  0  0  0  0  0  0
    7.1962   -2.5950    0.0000 C   0  0  1  0  0  0  0  0  0  0  0  0
    8.0622    0.9050    0.0000 C   0  0  0  0  0  0  0  0  0  0  0  0
    6.3301   -2.0950    0.0000 C   0  0  0  0  0  0  0  0  0  0  0  0
    7.1962    2.4050    0.0000 C   0  0  0  0  0  0  0  0  0  0  0  0
    4.5981   -2.0950    0.0000 C   0  0  0  0  0  0  0  0  0  0  0  0
    7.1962    3.4050    0.0000 C   0  0  0  0  0  0  0  0  0  0  0  0
    3.7320   -2.5950    0.0000 C   0  0  0  0  0  0  0  0  0  0  0  0
    6.3301    3.9050    0.0000 C   0  0  0  0  0  0  0  0  0  0  0  0
    8.0622    3.9050    0.0000 C   0  0  0  0  0  0  0  0  0  0  0  0
    3.7320   -3.5950    0.0000 C   0  0  0  0  0  0  0  0  0  0  0  0
    2.8660   -2.0950    0.0000 C   0  0  0  0  0  0  0  0  0  0  0  0
    6.3301    4.9050    0.0000 C   0  0  0  0  0  0  0  0  0  0  0  0
    8.0622    4.9050    0.0000 C   0  0  0  0  0  0  0  0  0  0  0  0
    2.8660   -4.0950    0.0000 C   0  0  0  0  0  0  0  0  0  0  0  0
    2.0000   -2.5950    0.0000 C   0  0  0  0  0  0  0  0  0  0  0  0
    7.1962    5.4050    0.0000 C   0  0  0  0  0  0  0  0  0  0  0  0
    2.0000   -3.5950    0.0000 C   0  0  0  0  0  0  0  0  0  0  0  0
    9.2573   -1.4050    0.0000 H   0  0  0  0  0  0  0  0  0  0  0  0
    9.4651   -2.9050    0.0000 H   0  0  0  0  0  0  0  0  0  0  0  0
   11.1972   -0.2850    0.0000 H   0  0  0  0  0  0  0  0  0  0  0  0
    8.9282   -4.2150    0.0000 H   0  0  0  0  0  0  0  0  0  0  0  0
   10.6603    1.0250    0.0000 H   0  0  0  0  0  0  0  0  0  0  0  0
    8.5991   -4.4050    0.0000 H   0  0  0  0  0  0  0  0  0  0  0  0
    9.2573    1.2150    0.0000 H   0  0  0  0  0  0  0  0  0  0  0  0
    7.1962   -4.2150    0.0000 H   0  0  0  0  0  0  0  0  0  0  0  0
    8.3913    0.0950    0.0000 H   0  0  0  0  0  0  0  0  0  0  0  0
    7.1962   -1.9750    0.0000 H   0  0  0  0  0  0  0  0  0  0  0  0
    7.4516    1.0127    0.0000 H   0  0  0  0  0  0  0  0  0  0  0  0
    7.8501    0.3224    0.0000 H   0  0  0  0  0  0  0  0  0  0  0  0
    6.7287   -1.6200    0.0000 H   0  0  0  0  0  0  0  0  0  0  0  0
    5.9316   -1.6200    0.0000 H   0  0  0  0  0  0  0  0  0  0  0  0
   12.0632   -0.7850    0.0000 H   0  0  0  0  0  0  0  0  0  0  0  0
    9.7942   -4.7150    0.0000 H   0  0  0  0  0  0  0  0  0  0  0  0
   11.5263    1.5250    0.0000 H   0  0  0  0  0  0  0  0  0  0  0  0
    7.5252   -5.4050    0.0000 H   0  0  0  0  0  0  0  0  0  0  0  0
   10.3312    2.2150    0.0000 H   0  0  0  0  0  0  0  0  0  0  0  0
    6.3301   -4.7150    0.0000 H   0  0  0  0  0  0  0  0  0  0  0  0
    5.7932    3.5950    0.0000 H   0  0  0  0  0  0  0  0  0  0  0  0
    8.5991    3.5950    0.0000 H   0  0  0  0  0  0  0  0  0  0  0  0
    4.2690   -3.9050    0.0000 H   0  0  0  0  0  0  0  0  0  0  0  0
    2.8660   -1.4750    0.0000 H   0  0  0  0  0  0  0  0  0  0  0  0
    5.7932    5.2150    0.0000 H   0  0  0  0  0  0  0  0  0  0  0  0
    8.5991    5.2150    0.0000 H   0  0  0  0  0  0  0  0  0  0  0  0
    2.8660   -4.7150    0.0000 H   0  0  0  0  0  0  0  0  0  0  0  0
    1.4631   -2.2850    0.0000 H   0  0  0  0  0  0  0  0  0  0  0  0
    7.1962    6.0250    0.0000 H   0  0  0  0  0  0  0  0  0  0  0  0
    1.4631   -3.9050    0.0000 H   0  0  0  0  0  0  0  0  0  0  0  0
 14  1  1  1  0  0  0
 15  1  1  6  0  0  0
  2 14  1  0  0  0  0
  2 22  1  0  0  0  0
  3 15  1  0  0  0  0
  3 23  1  0  0  0  0
 16  4  1  1  0  0  0
  4 54  1  0  0  0  0
 17  5  1  6  0  0  0
  5 55  1  0  0  0  0
 18  6  1  6  0  0  0
  6 56  1  0  0  0  0
 19  7  1  1  0  0  0
  7 57  1  0  0  0  0
 20  8  1  1  0  0  0
  8 58  1  0  0  0  0
 21  9  1  6  0  0  0
  9 59  1  0  0  0  0
 10 24  1  0  0  0  0
 10 26  1  0  0  0  0
 11 25  1  0  0  0  0
 11 27  1  0  0  0  0
 12 26  2  0  0  0  0
 13 27  2  0  0  0  0
 14 16  1  0  0  0  0
 14 40  1  0  0  0  0
 15 17  1  0  0  0  0
 15 41  1  0  0  0  0
 16 18  1  0  0  0  0
 16 42  1  0  0  0  0
 17 19  1  0  0  0  0
 17 43  1  0  0  0  0
 18 20  1  0  0  0  0
 18 44  1  0  0  0  0
 19 21  1  0  0  0  0
 19 45  1  0  0  0  0
 20 22  1  0  0  0  0
 20 46  1  0  0  0  0
 21 23  1  0  0  0  0
 21 47  1  0  0  0  0
 22 24  1  6  0  0  0
 22 48  1  0  0  0  0
 23 25  1  1  0  0  0
 23 49  1  0  0  0  0
 24 50  1  0  0  0  0
 24 51  1  0  0  0  0
 25 52  1  0  0  0  0
 25 53  1  0  0  0  0
 26 28  1  0  0  0  0
 27 29  1  0  0  0  0
 28 30  2  0  0  0  0
 28 31  1  0  0  0  0
 29 32  2  0  0  0  0
 29 33  1  0  0  0  0
 30 34  1  0  0  0  0
 30 60  1  0  0  0  0
 31 35  2  0  0  0  0
 31 61  1  0  0  0  0
 32 36  1  0  0  0  0
 32 62  1  0  0  0  0
 33 37  2  0  0  0  0
 33 63  1  0  0  0  0
 34 38  2  0  0  0  0
 34 64  1  0  0  0  0
 35 38  1  0  0  0  0
 35 65  1  0  0  0  0
 36 39  2  0  0  0  0
 36 66  1  0  0  0  0
 37 39  1  0  0  0  0
 37 67  1  0  0  0  0
 38 68  1  0  0  0  0
 39 69  1  0  0  0  0
M  END
> <PUBCHEM_COMPOUND_CID>
44139749

> <PUBCHEM_COMPOUND_CANONICALIZED>
1

> <PUBCHEM_CACTVS_COMPLEXITY>
735

> <PUBCHEM_CACTVS_HBOND_ACCEPTOR>
13

> <PUBCHEM_CACTVS_HBOND_DONOR>
6

> <PUBCHEM_CACTVS_ROTATABLE_BOND>
10

> <PUBCHEM_CACTVS_SUBSKEYS>
AAADceB4PAAAAAAAAAAAAAAAAAAAAAAAAAA0aIEAAAAAAAABQAAAGgAACAAADBSwmAMwCIAABgCIAiDSCAACAAAkAAAIiAEACMgZNjKANRiicQAlwAEPqYfI6CyOAAAAAAAAAAAAAAAAAAAAAAAAAAAAAA==

> <PUBCHEM_IUPAC_OPENEYE_NAME>
[(2R,3S,4S,5R,6R)-6-[(2R,3R,4S,5S,6R)-6-(benzoyloxymethyl)-3,4,5-trihydroxy-tetrahydropyran-2-yl]oxy-3,4,5-trihydroxy-tetrahydropyran-2-yl]methyl benzoate

> <PUBCHEM_IUPAC_CAS_NAME>
benzoic acid [(2R,3S,4S,5R,6R)-6-[[(2R,3R,4S,5S,6R)-6-(benzoyloxymethyl)-3,4,5-trihydroxy-2-oxanyl]oxy]-3,4,5-trihydroxy-2-oxanyl]methyl ester

> <PUBCHEM_IUPAC_NAME_MARKUP>
[(2<I>R</I>,3<I>S</I>,4<I>S</I>,5<I>R</I>,6<I>R</I>)-6-[(2<I>R</I>,3<I>R</I>,4<I>S</I>,5<I>S</I>,6<I>R</I>)-6-(benzoyloxymethyl)-3,4,5-trihydroxyoxan-2-yl]oxy-3,4,5-trihydroxyoxan-2-yl]methyl benzoate

> <PUBCHEM_IUPAC_NAME>
[(2R,3S,4S,5R,6R)-6-[(2R,3R,4S,5S,6R)-6-(benzoyloxymethyl)-3,4,5-trihydroxyoxan-2-yl]oxy-3,4,5-trihydroxyoxan-2-yl]methyl benzoate

> <PUBCHEM_IUPAC_SYSTEMATIC_NAME>
[(2R,3S,4S,5R,6R)-3,4,5-tris(oxidanyl)-6-[(2R,3R,4S,5S,6R)-3,4,5-tris(oxidanyl)-6-(phenylcarbonyloxymethyl)oxan-2-yl]oxy-oxan-2-yl]methyl benzoate

> <PUBCHEM_IUPAC_TRADITIONAL_NAME>
benzoic acid [(2R,3S,4S,5R,6R)-6-[(2R,3R,4S,5S,6R)-6-(benzoyloxymethyl)-3,4,5-trihydroxy-tetrahydropyran-2-yl]oxy-3,4,5-trihydroxy-tetrahydropyran-2-yl]methyl ester

> <PUBCHEM_IUPAC_INCHI>
InChI=1S/C26H30O13/c27-17-15(11-35-23(33)13-7-3-1-4-8-13)37-25(21(31)19(17)29)39-26-22(32)20(30)18(28)16(38-26)12-36-24(34)14-9-5-2-6-10-14/h1-10,15-22,25-32H,11-12H2/t15-,16-,17-,18-,19+,20+,21-,22-,25-,26-/m1/s1

> <PUBCHEM_IUPAC_INCHIKEY>
GDHNFXXPEKIIBW-LSISOBETSA-N

> <PUBCHEM_XLOGP3_AA>
-0.8

> <PUBCHEM_EXACT_MASS>
550.16864101

> <PUBCHEM_MOLECULAR_FORMULA>
C26H30O13

> <PUBCHEM_MOLECULAR_WEIGHT>
550.5

> <PUBCHEM_OPENEYE_CAN_SMILES>
C1=CC=C(C=C1)C(=O)OCC2C(C(C(C(O2)OC3C(C(C(C(O3)COC(=O)C4=CC=CC=C4)O)O)O)O)O)O

> <PUBCHEM_OPENEYE_ISO_SMILES>
C1=CC=C(C=C1)C(=O)OC[C@@H]2[C@H]([C@@H]([C@H]([C@H](O2)O[C@@H]3[C@@H]([C@H]([C@@H]([C@H](O3)COC(=O)C4=CC=CC=C4)O)O)O)O)O)O

> <PUBCHEM_CACTVS_TPSA>
202

> <PUBCHEM_MONOISOTOPIC_WEIGHT>
550.16864101

> <PUBCHEM_TOTAL_CHARGE>
0

> <PUBCHEM_HEAVY_ATOM_COUNT>
39

> <PUBCHEM_ATOM_DEF_STEREO_COUNT>
10

> <PUBCHEM_ATOM_UDEF_STEREO_COUNT>
0

> <PUBCHEM_BOND_DEF_STEREO_COUNT>
0

> <PUBCHEM_BOND_UDEF_STEREO_COUNT>
0

> <PUBCHEM_ISOTOPIC_ATOM_COUNT>
0

> <PUBCHEM_COMPONENT_COUNT>
1

> <PUBCHEM_CACTVS_TAUTO_COUNT>
-1

> <PUBCHEM_COORDINATE_TYPE>
1
5
255

> <PUBCHEM_BONDANNOTATIONS>
14  1  5
15  1  6
22  24  6
23  25  5
28  30  8
28  31  8
29  32  8
29  33  8
30  34  8
31  35  8
32  36  8
33  37  8
34  38  8
35  38  8
36  39  8
37  39  8
16  4  5
17  5  6
18  6  6
19  7  5
20  8  5
21  9  6

$$$$
