 
  -OEChem-10192103502D

 76 79  0     1  0  0  0  0  0999 V2000
    7.9497    2.1074    0.0000 O   0  0  0  0  0  0  0  0  0  0  0  0
    6.0010   -0.5950    0.0000 O   0  0  0  0  0  0  0  0  0  0  0  0
    4.2690   -0.5950    0.0000 O   0  0  0  0  0  0  0  0  0  0  0  0
    8.9396   -0.7889    0.0000 O   0  0  0  0  0  0  0  0  0  0  0  0
    6.0010   -2.5950    0.0000 O   0  0  0  0  0  0  0  0  0  0  0  0
    4.2690   -3.5950    0.0000 O   0  0  0  0  0  0  0  0  0  0  0  0
    2.5369   -2.5950    0.0000 O   0  0  0  0  0  0  0  0  0  0  0  0
    2.5369    0.4050    0.0000 O   0  0  0  0  0  0  0  0  0  0  0  0
   11.6144    2.6504    0.0000 O   0  0  0  0  0  0  0  0  0  0  0  0
   11.2523   -0.7947    0.0000 O   0  0  0  0  0  0  0  0  0  0  0  0
    4.2690    3.4050    0.0000 O   0  0  0  0  0  0  0  0  0  0  0  0
   12.4278    0.8233    0.0000 O   0  0  0  0  0  0  0  0  0  0  0  0
    2.5369    2.4050    0.0000 O   0  0  0  0  0  0  0  0  0  0  0  0
    6.8671    0.9050    0.0000 C   0  0  2  0  0  0  0  0  0  0  0  0
    7.7806    0.4983    0.0000 C   0  0  1  0  0  0  0  0  0  0  0  0
    8.4497    1.2414    0.0000 C   0  0  1  0  0  0  0  0  0  0  0  0
    6.0010    0.4050    0.0000 C   0  0  1  0  0  0  0  0  0  0  0  0
    6.9716    1.8995    0.0000 C   0  0  0  0  0  0  0  0  0  0  0  0
    7.9885   -0.4799    0.0000 C   0  0  0  0  0  0  0  0  0  0  0  0
    5.1350   -1.0950    0.0000 C   0  0  2  0  0  0  0  0  0  0  0  0
    9.4443    1.1369    0.0000 C   0  0  0  0  0  0  0  0  0  0  0  0
    5.1350    0.9050    0.0000 C   0  0  0  0  0  0  0  0  0  0  0  0
    5.1350   -2.0950    0.0000 C   0  0  1  0  0  0  0  0  0  0  0  0
    4.2690   -2.5950    0.0000 C   0  0  2  0  0  0  0  0  0  0  0  0
    3.4030   -2.0950    0.0000 C   0  0  1  0  0  0  0  0  0  0  0  0
    3.4030   -1.0950    0.0000 C   0  0  1  0  0  0  0  0  0  0  0  0
    9.8510    0.2233    0.0000 C   0  0  0  0  0  0  0  0  0  0  0  0
   10.0320    1.9459    0.0000 C   0  0  0  0  0  0  0  0  0  0  0  0
    5.1350    1.9050    0.0000 C   0  0  0  0  0  0  0  0  0  0  0  0
    4.2690    0.4050    0.0000 C   0  0  0  0  0  0  0  0  0  0  0  0
    2.5369   -0.5950    0.0000 C   0  0  0  0  0  0  0  0  0  0  0  0
   11.0266    1.8414    0.0000 C   0  0  0  0  0  0  0  0  0  0  0  0
   10.8455    0.1188    0.0000 C   0  0  0  0  0  0  0  0  0  0  0  0
    4.2690    2.4050    0.0000 C   0  0  0  0  0  0  0  0  0  0  0  0
    3.4030    0.9050    0.0000 C   0  0  0  0  0  0  0  0  0  0  0  0
   11.4333    0.9278    0.0000 C   0  0  0  0  0  0  0  0  0  0  0  0
    3.4030    1.9050    0.0000 C   0  0  0  0  0  0  0  0  0  0  0  0
   11.2076    3.5639    0.0000 C   0  0  0  0  0  0  0  0  0  0  0  0
   12.2468   -0.8993    0.0000 C   0  0  0  0  0  0  0  0  0  0  0  0
    3.4030    3.9050    0.0000 C   0  0  0  0  0  0  0  0  0  0  0  0
    6.1542    1.3679    0.0000 H   0  0  0  0  0  0  0  0  0  0  0  0
    7.2988    0.1081    0.0000 H   0  0  0  0  0  0  0  0  0  0  0  0
    8.6719    0.6626    0.0000 H   0  0  0  0  0  0  0  0  0  0  0  0
    6.5380    0.0950    0.0000 H   0  0  0  0  0  0  0  0  0  0  0  0
    6.9068    2.5161    0.0000 H   0  0  0  0  0  0  0  0  0  0  0  0
    6.3516    1.8995    0.0000 H   0  0  0  0  0  0  0  0  0  0  0  0
    7.3689   -0.5015    0.0000 H   0  0  0  0  0  0  0  0  0  0  0  0
    7.9022   -1.0938    0.0000 H   0  0  0  0  0  0  0  0  0  0  0  0
    5.6720   -1.4050    0.0000 H   0  0  0  0  0  0  0  0  0  0  0  0
    5.1350   -2.7150    0.0000 H   0  0  0  0  0  0  0  0  0  0  0  0
    3.7320   -2.9050    0.0000 H   0  0  0  0  0  0  0  0  0  0  0  0
    3.4030   -2.7150    0.0000 H   0  0  0  0  0  0  0  0  0  0  0  0
    3.4030   -0.4750    0.0000 H   0  0  0  0  0  0  0  0  0  0  0  0
    9.4866   -0.2783    0.0000 H   0  0  0  0  0  0  0  0  0  0  0  0
    9.7799    2.5123    0.0000 H   0  0  0  0  0  0  0  0  0  0  0  0
    5.6720    2.2150    0.0000 H   0  0  0  0  0  0  0  0  0  0  0  0
    4.2690   -0.2150    0.0000 H   0  0  0  0  0  0  0  0  0  0  0  0
    9.0685   -1.3954    0.0000 H   0  0  0  0  0  0  0  0  0  0  0  0
    1.9264   -0.4873    0.0000 H   0  0  0  0  0  0  0  0  0  0  0  0
    2.3249   -1.1776    0.0000 H   0  0  0  0  0  0  0  0  0  0  0  0
    6.0010   -3.2150    0.0000 H   0  0  0  0  0  0  0  0  0  0  0  0
    3.7320   -3.9050    0.0000 H   0  0  0  0  0  0  0  0  0  0  0  0
    2.0000   -2.2850    0.0000 H   0  0  0  0  0  0  0  0  0  0  0  0
    2.8660    0.5950    0.0000 H   0  0  0  0  0  0  0  0  0  0  0  0
    2.0000    0.7150    0.0000 H   0  0  0  0  0  0  0  0  0  0  0  0
   12.7923    1.3249    0.0000 H   0  0  0  0  0  0  0  0  0  0  0  0
    2.0000    2.0950    0.0000 H   0  0  0  0  0  0  0  0  0  0  0  0
   11.7740    3.8161    0.0000 H   0  0  0  0  0  0  0  0  0  0  0  0
   10.9554    4.1303    0.0000 H   0  0  0  0  0  0  0  0  0  0  0  0
   10.6412    3.3118    0.0000 H   0  0  0  0  0  0  0  0  0  0  0  0
   12.1820   -1.5159    0.0000 H   0  0  0  0  0  0  0  0  0  0  0  0
   12.8634   -0.9641    0.0000 H   0  0  0  0  0  0  0  0  0  0  0  0
   12.3116   -0.2827    0.0000 H   0  0  0  0  0  0  0  0  0  0  0  0
    3.7130    4.4419    0.0000 H   0  0  0  0  0  0  0  0  0  0  0  0
    2.8660    4.2150    0.0000 H   0  0  0  0  0  0  0  0  0  0  0  0
    3.0930    3.3681    0.0000 H   0  0  0  0  0  0  0  0  0  0  0  0
  1 16  1  0  0  0  0
  1 18  1  0  0  0  0
 17  2  1  6  0  0  0
 20  2  1  1  0  0  0
  3 20  1  0  0  0  0
  3 26  1  0  0  0  0
  4 19  1  0  0  0  0
  4 58  1  0  0  0  0
 23  5  1  6  0  0  0
  5 61  1  0  0  0  0
 24  6  1  1  0  0  0
  6 62  1  0  0  0  0
 25  7  1  6  0  0  0
  7 63  1  0  0  0  0
  8 31  1  0  0  0  0
  8 65  1  0  0  0  0
  9 32  1  0  0  0  0
  9 38  1  0  0  0  0
 10 33  1  0  0  0  0
 10 39  1  0  0  0  0
 11 34  1  0  0  0  0
 11 40  1  0  0  0  0
 12 36  1  0  0  0  0
 12 66  1  0  0  0  0
 13 37  1  0  0  0  0
 13 67  1  0  0  0  0
 14 15  1  0  0  0  0
 14 17  1  0  0  0  0
 14 18  1  0  0  0  0
 14 41  1  1  0  0  0
 15 16  1  0  0  0  0
 15 19  1  1  0  0  0
 15 42  1  0  0  0  0
 16 21  1  6  0  0  0
 16 43  1  0  0  0  0
 17 22  1  0  0  0  0
 17 44  1  0  0  0  0
 18 45  1  0  0  0  0
 18 46  1  0  0  0  0
 19 47  1  0  0  0  0
 19 48  1  0  0  0  0
 20 23  1  0  0  0  0
 20 49  1  0  0  0  0
 21 27  2  0  0  0  0
 21 28  1  0  0  0  0
 22 29  2  0  0  0  0
 22 30  1  0  0  0  0
 23 24  1  0  0  0  0
 23 50  1  0  0  0  0
 24 25  1  0  0  0  0
 24 51  1  0  0  0  0
 25 26  1  0  0  0  0
 25 52  1  0  0  0  0
 26 31  1  1  0  0  0
 26 53  1  0  0  0  0
 27 33  1  0  0  0  0
 27 54  1  0  0  0  0
 28 32  2  0  0  0  0
 28 55  1  0  0  0  0
 29 34  1  0  0  0  0
 29 56  1  0  0  0  0
 30 35  2  0  0  0  0
 30 57  1  0  0  0  0
 31 59  1  0  0  0  0
 31 60  1  0  0  0  0
 32 36  1  0  0  0  0
 33 36  2  0  0  0  0
 34 37  2  0  0  0  0
 35 37  1  0  0  0  0
 35 64  1  0  0  0  0
 38 68  1  0  0  0  0
 38 69  1  0  0  0  0
 38 70  1  0  0  0  0
 39 71  1  0  0  0  0
 39 72  1  0  0  0  0
 39 73  1  0  0  0  0
 40 74  1  0  0  0  0
 40 75  1  0  0  0  0
 40 76  1  0  0  0  0
M  END
> <PUBCHEM_COMPOUND_CID>
21630008

> <PUBCHEM_COMPOUND_CANONICALIZED>
1

> <PUBCHEM_CACTVS_COMPLEXITY>
761

> <PUBCHEM_CACTVS_HBOND_ACCEPTOR>
13

> <PUBCHEM_CACTVS_HBOND_DONOR>
7

> <PUBCHEM_CACTVS_ROTATABLE_BOND>
10

> <PUBCHEM_CACTVS_SUBSKEYS>
AAADcfB4PAAAAAAAAAAAAAAAAAAAASAAAAA0YIAAAAAAAAABQAAAGgAACAAADRSwmAMyDoAABgCAAiBCAAACCAAgIAAIiAAGiIgdNyKGMRqicCMlwBUPuAfA4PwOoAABCAAAQABAAAIQAACAAAAAAAAAAA==

> <PUBCHEM_IUPAC_OPENEYE_NAME>
(2R,3R,4S,5S,6R)-2-[(S)-[(3S,4R,5S)-5-(4-hydroxy-3,5-dimethoxy-phenyl)-4-(hydroxymethyl)tetrahydrofuran-3-yl]-(4-hydroxy-3-methoxy-phenyl)methoxy]-6-(hydroxymethyl)tetrahydropyran-3,4,5-triol

> <PUBCHEM_IUPAC_CAS_NAME>
(2R,3R,4S,5S,6R)-2-[(S)-[(3S,4R,5S)-5-(4-hydroxy-3,5-dimethoxyphenyl)-4-(hydroxymethyl)-3-oxolanyl]-(4-hydroxy-3-methoxyphenyl)methoxy]-6-(hydroxymethyl)oxane-3,4,5-triol

> <PUBCHEM_IUPAC_NAME_MARKUP>
(2<I>R</I>,3<I>R</I>,4<I>S</I>,5<I>S</I>,6<I>R</I>)-2-[(<I>S</I>)-[(3<I>S</I>,4<I>R</I>,5<I>S</I>)-5-(4-hydroxy-3,5-dimethoxyphenyl)-4-(hydroxymethyl)oxolan-3-yl]-(4-hydroxy-3-methoxyphenyl)methoxy]-6-(hydroxymethyl)oxane-3,4,5-triol

> <PUBCHEM_IUPAC_NAME>
(2R,3R,4S,5S,6R)-2-[(S)-[(3S,4R,5S)-5-(4-hydroxy-3,5-dimethoxyphenyl)-4-(hydroxymethyl)oxolan-3-yl]-(4-hydroxy-3-methoxyphenyl)methoxy]-6-(hydroxymethyl)oxane-3,4,5-triol

> <PUBCHEM_IUPAC_SYSTEMATIC_NAME>
(2R,3R,4S,5S,6R)-2-[(S)-[(3S,4R,5S)-5-(3,5-dimethoxy-4-oxidanyl-phenyl)-4-(hydroxymethyl)oxolan-3-yl]-(3-methoxy-4-oxidanyl-phenyl)methoxy]-6-(hydroxymethyl)oxane-3,4,5-triol

> <PUBCHEM_IUPAC_TRADITIONAL_NAME>
(2R,3R,4S,5S,6R)-2-[(S)-[(3S,4R,5S)-5-(4-hydroxy-3,5-dimethoxy-phenyl)-4-methylol-tetrahydrofuran-3-yl]-(4-hydroxy-3-methoxy-phenyl)methoxy]-6-methylol-tetrahydropyran-3,4,5-triol

> <PUBCHEM_IUPAC_INCHI>
InChI=1S/C27H36O13/c1-35-17-6-12(4-5-16(17)30)26(40-27-24(34)23(33)22(32)20(10-29)39-27)15-11-38-25(14(15)9-28)13-7-18(36-2)21(31)19(8-13)37-3/h4-8,14-15,20,22-34H,9-11H2,1-3H3/t14-,15+,20+,22+,23-,24+,25+,26+,27-/m0/s1

> <PUBCHEM_IUPAC_INCHIKEY>
LTFQGPBDLOLKNW-ASGMAPEUSA-N

> <PUBCHEM_XLOGP3_AA>
-0.3

> <PUBCHEM_EXACT_MASS>
568.21559120

> <PUBCHEM_MOLECULAR_FORMULA>
C27H36O13

> <PUBCHEM_MOLECULAR_WEIGHT>
568.6

> <PUBCHEM_OPENEYE_CAN_SMILES>
COC1=CC(=CC(=C1O)OC)C2C(C(CO2)C(C3=CC(=C(C=C3)O)OC)OC4C(C(C(C(O4)CO)O)O)O)CO

> <PUBCHEM_OPENEYE_ISO_SMILES>
COC1=CC(=CC(=C1O)OC)[C@@H]2[C@H]([C@@H](CO2)[C@@H](C3=CC(=C(C=C3)O)OC)O[C@H]4[C@@H]([C@H]([C@@H]([C@H](O4)CO)O)O)O)CO

> <PUBCHEM_CACTVS_TPSA>
197

> <PUBCHEM_MONOISOTOPIC_WEIGHT>
568.21559120

> <PUBCHEM_TOTAL_CHARGE>
0

> <PUBCHEM_HEAVY_ATOM_COUNT>
40

> <PUBCHEM_ATOM_DEF_STEREO_COUNT>
9

> <PUBCHEM_ATOM_UDEF_STEREO_COUNT>
0

> <PUBCHEM_BOND_DEF_STEREO_COUNT>
0

> <PUBCHEM_BOND_UDEF_STEREO_COUNT>
0

> <PUBCHEM_ISOTOPIC_ATOM_COUNT>
0

> <PUBCHEM_COMPONENT_COUNT>
1

> <PUBCHEM_CACTVS_TAUTO_COUNT>
-1

> <PUBCHEM_COORDINATE_TYPE>
1
5
255

> <PUBCHEM_BONDANNOTATIONS>
14  41  5
15  19  5
16  21  6
17  2  6
20  2  5
21  27  8
21  28  8
22  29  8
22  30  8
26  31  5
27  33  8
28  32  8
29  34  8
30  35  8
32  36  8
33  36  8
34  37  8
35  37  8
23  5  6
24  6  5
25  7  6

$$$$
