 
  -OEChem-10192104042D

 30 31  0     1  0  0  0  0  0999 V2000
    7.1279    0.1218    0.0000 O   0  4  0  0  0  0  0  0  0  0  0  0
    3.7320   -1.8782    0.0000 O   0  0  0  0  0  0  0  0  0  0  0  0
    2.0000    1.1218    0.0000 O   0  0  0  0  0  0  0  0  0  0  0  0
    6.1279    0.1218    0.0000 N   0  0  3  0  0  0  0  0  0  0  0  0
    3.7320    1.1218    0.0000 N   0  0  0  0  0  0  0  0  0  0  0  0
    2.8660   -0.3782    0.0000 N   0  0  0  0  0  0  0  0  0  0  0  0
    5.5443    0.9266    0.0000 C   0  0  0  0  0  0  0  0  0  0  0  0
    5.5443   -0.6829    0.0000 C   0  0  0  0  0  0  0  0  0  0  0  0
    4.5981    0.6218    0.0000 C   0  0  0  0  0  0  0  0  0  0  0  0
    4.5981   -0.3782    0.0000 C   0  0  0  0  0  0  0  0  0  0  0  0
    6.3543    1.5130    0.0000 C   0  0  0  0  0  0  0  0  0  0  0  0
    5.2369    1.8782    0.0000 C   0  0  0  0  0  0  0  0  0  0  0  0
    6.3543   -1.2693    0.0000 C   0  0  0  0  0  0  0  0  0  0  0  0
    5.2369   -1.6345    0.0000 C   0  0  0  0  0  0  0  0  0  0  0  0
    3.7320   -0.8782    0.0000 C   0  0  0  0  0  0  0  0  0  0  0  0
    2.8660    0.6218    0.0000 C   0  0  0  0  0  0  0  0  0  0  0  0
    6.7179    1.0107    0.0000 H   0  0  0  0  0  0  0  0  0  0  0  0
    6.8566    1.8765    0.0000 H   0  0  0  0  0  0  0  0  0  0  0  0
    5.9908    2.0152    0.0000 H   0  0  0  0  0  0  0  0  0  0  0  0
    5.8269    2.0687    0.0000 H   0  0  0  0  0  0  0  0  0  0  0  0
    5.0464    2.4682    0.0000 H   0  0  0  0  0  0  0  0  0  0  0  0
    4.6469    1.6876    0.0000 H   0  0  0  0  0  0  0  0  0  0  0  0
    5.9908   -1.7715    0.0000 H   0  0  0  0  0  0  0  0  0  0  0  0
    6.8566   -1.6328    0.0000 H   0  0  0  0  0  0  0  0  0  0  0  0
    6.7179   -0.7671    0.0000 H   0  0  0  0  0  0  0  0  0  0  0  0
    4.6469   -1.4439    0.0000 H   0  0  0  0  0  0  0  0  0  0  0  0
    5.0464   -2.2245    0.0000 H   0  0  0  0  0  0  0  0  0  0  0  0
    5.8269   -1.8250    0.0000 H   0  0  0  0  0  0  0  0  0  0  0  0
    3.7320    1.7418    0.0000 H   0  0  0  0  0  0  0  0  0  0  0  0
    2.3291   -0.6882    0.0000 H   0  0  0  0  0  0  0  0  0  0  0  0
  1  4  1  0  0  0  0
  2 15  2  0  0  0  0
  3 16  2  0  0  0  0
  4  7  1  0  0  0  0
  4  8  1  0  0  0  0
  5  9  1  0  0  0  0
  5 16  1  0  0  0  0
  5 29  1  0  0  0  0
  6 15  1  0  0  0  0
  6 16  1  0  0  0  0
  6 30  1  0  0  0  0
  7  9  1  0  0  0  0
  7 11  1  0  0  0  0
  7 12  1  0  0  0  0
  8 10  1  0  0  0  0
  8 13  1  0  0  0  0
  8 14  1  0  0  0  0
  9 10  2  0  0  0  0
 10 15  1  0  0  0  0
 11 17  1  0  0  0  0
 11 18  1  0  0  0  0
 11 19  1  0  0  0  0
 12 20  1  0  0  0  0
 12 21  1  0  0  0  0
 12 22  1  0  0  0  0
 13 23  1  0  0  0  0
 13 24  1  0  0  0  0
 13 25  1  0  0  0  0
 14 26  1  0  0  0  0
 14 27  1  0  0  0  0
 14 28  1  0  0  0  0
M  RAD  1   1   2
M  END
> <PUBCHEM_COMPOUND_CID>
132598049

> <PUBCHEM_COMPOUND_CANONICALIZED>
1

> <PUBCHEM_CACTVS_COMPLEXITY>
423

> <PUBCHEM_CACTVS_HBOND_ACCEPTOR>
3

> <PUBCHEM_CACTVS_HBOND_DONOR>
2

> <PUBCHEM_CACTVS_ROTATABLE_BOND>
0

> <PUBCHEM_CACTVS_SUBSKEYS>
AAADccBzMAAAAAAAAAAAAAAAAAAAAQAAAAAgAAAAAAAAAFgAAAAAHgAUAAAADIiBgAADAALQAACIAgVQUACAAAAgAAAgCAEAAEiAQBgAwAAUAAAIBSKIAUIAAAAIAAAAAAAAAAAAAAAAAAAAAAAAAAAAAA==

> <PUBCHEM_IUPAC_INCHI>
InChI=1S/C10H14N3O3/c1-9(2)5-6(10(3,4)13(9)16)11-8(15)12-7(5)14/h1-4H3,(H2,11,12,14,15)

> <PUBCHEM_IUPAC_INCHIKEY>
KXYYMSCRTMXPGE-UHFFFAOYSA-N

> <PUBCHEM_XLOGP3_AA>
-0.9

> <PUBCHEM_EXACT_MASS>
224.10351632

> <PUBCHEM_MOLECULAR_FORMULA>
C10H14N3O3

> <PUBCHEM_MOLECULAR_WEIGHT>
224.24

> <PUBCHEM_OPENEYE_CAN_SMILES>
CC1(C2=C(C(N1[O])(C)C)NC(=O)NC2=O)C

> <PUBCHEM_OPENEYE_ISO_SMILES>
CC1(C2=C(C(N1[O])(C)C)NC(=O)NC2=O)C

> <PUBCHEM_CACTVS_TPSA>
62.4

> <PUBCHEM_MONOISOTOPIC_WEIGHT>
224.10351632

> <PUBCHEM_TOTAL_CHARGE>
0

> <PUBCHEM_HEAVY_ATOM_COUNT>
16

> <PUBCHEM_ATOM_DEF_STEREO_COUNT>
0

> <PUBCHEM_ATOM_UDEF_STEREO_COUNT>
0

> <PUBCHEM_BOND_DEF_STEREO_COUNT>
0

> <PUBCHEM_BOND_UDEF_STEREO_COUNT>
0

> <PUBCHEM_ISOTOPIC_ATOM_COUNT>
0

> <PUBCHEM_COMPONENT_COUNT>
1

> <PUBCHEM_CACTVS_TAUTO_COUNT>
-1

> <PUBCHEM_COORDINATE_TYPE>
1
5
255

> <PUBCHEM_BONDANNOTATIONS>
10  15  8
5  16  8
5  9  8
6  15  8
6  16  8
9  10  8

$$$$
