 
  -OEChem-10192104282D

 15 16  0     0  0  0  0  0  0999 V2000
    3.0000    0.0000    0.0000 S   0  0  0  0  0  0  0  0  0  0  0  0
    2.1910   -1.5878    0.0000 O   0  0  0  0  0  0  0  0  0  0  0  0
    3.8090    1.5878    0.0000 O   0  0  0  0  0  0  0  0  0  0  0  0
    4.0000    0.0000    0.0000 O   0  0  0  0  0  0  0  0  0  0  0  0
    2.0000    0.0000    0.0000 O   0  0  0  0  0  0  0  0  0  0  0  0
    3.8090   -1.5878    0.0000 N   0  0  0  0  0  0  0  0  0  0  0  0
    2.1910    1.5878    0.0000 N   0  0  0  0  0  0  0  0  0  0  0  0
    3.5000   -2.5388    0.0000 N   0  0  0  0  0  0  0  0  0  0  0  0
    2.5000    2.5388    0.0000 N   0  0  0  0  0  0  0  0  0  0  0  0
    3.0000   -1.0000    0.0000 C   0  0  0  0  0  0  0  0  0  0  0  0
    3.0000    1.0000    0.0000 C   0  0  0  0  0  0  0  0  0  0  0  0
    2.5000   -2.5388    0.0000 C   0  0  0  0  0  0  0  0  0  0  0  0
    3.5000    2.5388    0.0000 C   0  0  0  0  0  0  0  0  0  0  0  0
    2.1356   -3.0404    0.0000 H   0  0  0  0  0  0  0  0  0  0  0  0
    3.8644    3.0404    0.0000 H   0  0  0  0  0  0  0  0  0  0  0  0
  1  4  2  0  0  0  0
  1  5  2  0  0  0  0
  1 10  1  0  0  0  0
  1 11  1  0  0  0  0
  2 10  1  0  0  0  0
  2 12  1  0  0  0  0
  3 11  1  0  0  0  0
  3 13  1  0  0  0  0
  6  8  1  0  0  0  0
  6 10  2  0  0  0  0
  7  9  1  0  0  0  0
  7 11  2  0  0  0  0
  8 12  2  0  0  0  0
  9 13  2  0  0  0  0
 12 14  1  0  0  0  0
 13 15  1  0  0  0  0
M  END
> <PUBCHEM_COMPOUND_CID>
68448945

> <PUBCHEM_COMPOUND_CANONICALIZED>
1

> <PUBCHEM_CACTVS_COMPLEXITY>
252

> <PUBCHEM_CACTVS_HBOND_ACCEPTOR>
8

> <PUBCHEM_CACTVS_HBOND_DONOR>
0

> <PUBCHEM_CACTVS_ROTATABLE_BOND>
2

> <PUBCHEM_CACTVS_SUBSKEYS>
AAADcQBjuABAAAAAAAAAAAAAAAAAAWLAAAAAAAAAAAAAAAAB4AAAFgQIAAAAAAAAAAYEAAAABEoqAAABkHAYAABIgAACAAAAAAAAAAAAAAAAAAAAAAAAAAAAAAAAAAAAAAAAAAAAAAAAAAAAAAAAAAAAAA==

> <PUBCHEM_IUPAC_OPENEYE_NAME>
2-(1,3,4-oxadiazol-2-ylsulfonyl)-1,3,4-oxadiazole

> <PUBCHEM_IUPAC_CAS_NAME>
2-(1,3,4-oxadiazol-2-ylsulfonyl)-1,3,4-oxadiazole

> <PUBCHEM_IUPAC_NAME_MARKUP>
2-(1,3,4-oxadiazol-2-ylsulfonyl)-1,3,4-oxadiazole

> <PUBCHEM_IUPAC_NAME>
2-(1,3,4-oxadiazol-2-ylsulfonyl)-1,3,4-oxadiazole

> <PUBCHEM_IUPAC_SYSTEMATIC_NAME>
2-(1,3,4-oxadiazol-2-ylsulfonyl)-1,3,4-oxadiazole

> <PUBCHEM_IUPAC_TRADITIONAL_NAME>
2-(1,3,4-oxadiazol-2-ylsulfonyl)-1,3,4-oxadiazole

> <PUBCHEM_IUPAC_INCHI>
InChI=1S/C4H2N4O4S/c9-13(10,3-7-5-1-11-3)4-8-6-2-12-4/h1-2H

> <PUBCHEM_IUPAC_INCHIKEY>
IVLHGMAMRGTMMW-UHFFFAOYSA-N

> <PUBCHEM_XLOGP3_AA>
-1

> <PUBCHEM_EXACT_MASS>
201.97967573

> <PUBCHEM_MOLECULAR_FORMULA>
C4H2N4O4S

> <PUBCHEM_MOLECULAR_WEIGHT>
202.15

> <PUBCHEM_OPENEYE_CAN_SMILES>
C1=NN=C(O1)S(=O)(=O)C2=NN=CO2

> <PUBCHEM_OPENEYE_ISO_SMILES>
C1=NN=C(O1)S(=O)(=O)C2=NN=CO2

> <PUBCHEM_CACTVS_TPSA>
120

> <PUBCHEM_MONOISOTOPIC_WEIGHT>
201.97967573

> <PUBCHEM_TOTAL_CHARGE>
0

> <PUBCHEM_HEAVY_ATOM_COUNT>
13

> <PUBCHEM_ATOM_DEF_STEREO_COUNT>
0

> <PUBCHEM_ATOM_UDEF_STEREO_COUNT>
0

> <PUBCHEM_BOND_DEF_STEREO_COUNT>
0

> <PUBCHEM_BOND_UDEF_STEREO_COUNT>
0

> <PUBCHEM_ISOTOPIC_ATOM_COUNT>
0

> <PUBCHEM_COMPONENT_COUNT>
1

> <PUBCHEM_CACTVS_TAUTO_COUNT>
-1

> <PUBCHEM_COORDINATE_TYPE>
1
5
255

> <PUBCHEM_BONDANNOTATIONS>
2  10  8
2  12  8
3  11  8
3  13  8
6  10  8
6  8  8
7  11  8
7  9  8
8  12  8
9  13  8

$$$$
