 
  -OEChem-10192104062D

 53 56  0     1  0  0  0  0  0999 V2000
    8.2857   -0.2714    0.0000 O   0  0  0  0  0  0  0  0  0  0  0  0
    7.4810    2.2136    0.0000 O   0  0  0  0  0  0  0  0  0  0  0  0
    9.0904    2.2136    0.0000 O   0  0  0  0  0  0  0  0  0  0  0  0
    6.3177   -0.9708    0.0000 O   0  0  0  0  0  0  0  0  0  0  0  0
    4.5576   -0.6920    0.0000 O   0  0  0  0  0  0  0  0  0  0  0  0
    5.6454   -3.0399    0.0000 O   0  0  0  0  0  0  0  0  0  0  0  0
    3.4698   -3.0399    0.0000 O   0  0  0  0  0  0  0  0  0  0  0  0
    2.5896    0.0074    0.0000 O   0  0  0  0  0  0  0  0  0  0  0  0
    9.5105   -1.6399    0.0000 O   0  0  0  0  0  0  0  0  0  0  0  0
   12.8989   -0.9197    0.0000 O   0  0  0  0  0  0  0  0  0  0  0  0
   10.0458    0.0074    0.0000 N   0  0  0  0  0  0  0  0  0  0  0  0
   11.2047   -1.2798    0.0000 N   0  0  0  0  0  0  0  0  0  0  0  0
    7.7857    1.2674    0.0000 C   0  0  1  0  0  0  0  0  0  0  0  0
    8.7857    1.2674    0.0000 C   0  0  2  0  0  0  0  0  0  0  0  0
    7.4767    0.3164    0.0000 C   0  0  1  0  0  0  0  0  0  0  0  0
    9.0947    0.3164    0.0000 C   0  0  1  0  0  0  0  0  0  0  0  0
    8.2857    2.7973    0.0000 C   0  0  0  0  0  0  0  0  0  0  0  0
    6.5256    0.0074    0.0000 C   0  0  0  0  0  0  0  0  0  0  0  0
    5.3667   -1.2798    0.0000 C   0  0  2  0  0  0  0  0  0  0  0  0
    5.0576   -2.2309    0.0000 C   0  0  1  0  0  0  0  0  0  0  0  0
    7.6979    3.6063    0.0000 C   0  0  0  0  0  0  0  0  0  0  0  0
    8.8735    3.6063    0.0000 C   0  0  0  0  0  0  0  0  0  0  0  0
    4.0576   -2.2309    0.0000 C   0  0  1  0  0  0  0  0  0  0  0  0
    3.7486   -1.2798    0.0000 C   0  0  1  0  0  0  0  0  0  0  0  0
   10.2537   -0.9708    0.0000 C   0  0  0  0  0  0  0  0  0  0  0  0
   10.7889    0.6765    0.0000 C   0  0  0  0  0  0  0  0  0  0  0  0
    2.7976   -0.9708    0.0000 C   0  0  0  0  0  0  0  0  0  0  0  0
   11.7400    0.3675    0.0000 C   0  0  0  0  0  0  0  0  0  0  0  0
   11.9479   -0.6107    0.0000 C   0  0  0  0  0  0  0  0  0  0  0  0
    6.9357    1.2685    0.0000 H   0  0  0  0  0  0  0  0  0  0  0  0
    9.6357    1.2685    0.0000 H   0  0  0  0  0  0  0  0  0  0  0  0
    7.3797   -0.2960    0.0000 H   0  0  0  0  0  0  0  0  0  0  0  0
    9.1917   -0.2960    0.0000 H   0  0  0  0  0  0  0  0  0  0  0  0
    6.4393    0.6213    0.0000 H   0  0  0  0  0  0  0  0  0  0  0  0
    5.9060    0.0290    0.0000 H   0  0  0  0  0  0  0  0  0  0  0  0
    5.8051   -1.7182    0.0000 H   0  0  0  0  0  0  0  0  0  0  0  0
    4.7762   -2.7833    0.0000 H   0  0  0  0  0  0  0  0  0  0  0  0
    8.1995    3.9707    0.0000 H   0  0  0  0  0  0  0  0  0  0  0  0
    7.3335    4.1079    0.0000 H   0  0  0  0  0  0  0  0  0  0  0  0
    7.1963    3.2418    0.0000 H   0  0  0  0  0  0  0  0  0  0  0  0
    9.3751    3.2418    0.0000 H   0  0  0  0  0  0  0  0  0  0  0  0
    9.2379    4.1079    0.0000 H   0  0  0  0  0  0  0  0  0  0  0  0
    8.3719    3.9707    0.0000 H   0  0  0  0  0  0  0  0  0  0  0  0
    4.3391   -2.7833    0.0000 H   0  0  0  0  0  0  0  0  0  0  0  0
    3.6516   -0.6674    0.0000 H   0  0  0  0  0  0  0  0  0  0  0  0
   10.6600    1.2829    0.0000 H   0  0  0  0  0  0  0  0  0  0  0  0
    2.1779   -0.9924    0.0000 H   0  0  0  0  0  0  0  0  0  0  0  0
    2.7113   -1.5848    0.0000 H   0  0  0  0  0  0  0  0  0  0  0  0
    5.3932   -3.6063    0.0000 H   0  0  0  0  0  0  0  0  0  0  0  0
    2.8532   -2.9751    0.0000 H   0  0  0  0  0  0  0  0  0  0  0  0
   11.3336   -1.8863    0.0000 H   0  0  0  0  0  0  0  0  0  0  0  0
   12.2007    0.7823    0.0000 H   0  0  0  0  0  0  0  0  0  0  0  0
    2.0000    0.1989    0.0000 H   0  0  0  0  0  0  0  0  0  0  0  0
  1 15  1  0  0  0  0
  1 16  1  0  0  0  0
  2 13  1  0  0  0  0
  2 17  1  0  0  0  0
  3 14  1  0  0  0  0
  3 17  1  0  0  0  0
  4 18  1  0  0  0  0
 19  4  1  1  0  0  0
  5 19  1  0  0  0  0
  5 24  1  0  0  0  0
 20  6  1  6  0  0  0
  6 49  1  0  0  0  0
 23  7  1  6  0  0  0
  7 50  1  0  0  0  0
  8 27  1  0  0  0  0
  8 53  1  0  0  0  0
  9 25  2  0  0  0  0
 10 29  2  0  0  0  0
 16 11  1  6  0  0  0
 11 25  1  0  0  0  0
 11 26  1  0  0  0  0
 12 25  1  0  0  0  0
 12 29  1  0  0  0  0
 12 51  1  0  0  0  0
 13 14  1  0  0  0  0
 13 15  1  0  0  0  0
 13 30  1  6  0  0  0
 14 16  1  0  0  0  0
 14 31  1  6  0  0  0
 15 18  1  6  0  0  0
 15 32  1  0  0  0  0
 16 33  1  0  0  0  0
 17 21  1  0  0  0  0
 17 22  1  0  0  0  0
 18 34  1  0  0  0  0
 18 35  1  0  0  0  0
 19 20  1  0  0  0  0
 19 36  1  0  0  0  0
 20 23  1  0  0  0  0
 20 37  1  0  0  0  0
 21 38  1  0  0  0  0
 21 39  1  0  0  0  0
 21 40  1  0  0  0  0
 22 41  1  0  0  0  0
 22 42  1  0  0  0  0
 22 43  1  0  0  0  0
 23 24  1  0  0  0  0
 23 44  1  0  0  0  0
 24 27  1  1  0  0  0
 24 45  1  0  0  0  0
 26 28  2  0  0  0  0
 26 46  1  0  0  0  0
 27 47  1  0  0  0  0
 27 48  1  0  0  0  0
 28 29  1  0  0  0  0
 28 52  1  0  0  0  0
M  END
> <PUBCHEM_COMPOUND_CID>
10502015

> <PUBCHEM_COMPOUND_CANONICALIZED>
1

> <PUBCHEM_CACTVS_COMPLEXITY>
700

> <PUBCHEM_CACTVS_HBOND_ACCEPTOR>
10

> <PUBCHEM_CACTVS_HBOND_DONOR>
4

> <PUBCHEM_CACTVS_ROTATABLE_BOND>
5

> <PUBCHEM_CACTVS_SUBSKEYS>
AAADceB7PAAAAAAAAAAAAAAAAAAAASJEgAAgAAAAAAASAAAAAAAAHgAQCAAACBTxgAcDCAPABgCIACFWUACAAAAAAgAIAAAIAECTEAIAgAAvQAAPFyIXAMDwMAoAAAAAAAAAAAAAAAAAAAAAAAAAAAAAAA==

> <PUBCHEM_IUPAC_OPENEYE_NAME>
1-[(3aR,4R,6R,6aR)-6-[[(2R,3R,4S,5R)-3,4-dihydroxy-5-(hydroxymethyl)tetrahydrofuran-2-yl]oxymethyl]-2,2-dimethyl-3a,4,6,6a-tetrahydrofuro[3,4-d][1,3]dioxol-4-yl]pyrimidine-2,4-dione

> <PUBCHEM_IUPAC_CAS_NAME>
1-[(3aR,4R,6R,6aR)-6-[[(2R,3R,4S,5R)-3,4-dihydroxy-5-(hydroxymethyl)-2-oxolanyl]oxymethyl]-2,2-dimethyl-3a,4,6,6a-tetrahydrofuro[3,4-d][1,3]dioxol-4-yl]pyrimidine-2,4-dione

> <PUBCHEM_IUPAC_NAME_MARKUP>
1-[(3<I>a</I><I>R</I>,4<I>R</I>,6<I>R</I>,6<I>a</I><I>R</I>)-6-[[(2<I>R</I>,3<I>R</I>,4<I>S</I>,5<I>R</I>)-3,4-dihydroxy-5-(hydroxymethyl)oxolan-2-yl]oxymethyl]-2,2-dimethyl-3<I>a</I>,4,6,6<I>a</I>-tetrahydrofuro[3,4-d][1,3]dioxol-4-yl]pyrimidine-2,4-dione

> <PUBCHEM_IUPAC_NAME>
1-[(3aR,4R,6R,6aR)-6-[[(2R,3R,4S,5R)-3,4-dihydroxy-5-(hydroxymethyl)oxolan-2-yl]oxymethyl]-2,2-dimethyl-3a,4,6,6a-tetrahydrofuro[3,4-d][1,3]dioxol-4-yl]pyrimidine-2,4-dione

> <PUBCHEM_IUPAC_SYSTEMATIC_NAME>
1-[(3aR,4R,6R,6aR)-6-[[(2R,3R,4S,5R)-5-(hydroxymethyl)-3,4-bis(oxidanyl)oxolan-2-yl]oxymethyl]-2,2-dimethyl-3a,4,6,6a-tetrahydrofuro[3,4-d][1,3]dioxol-4-yl]pyrimidine-2,4-dione

> <PUBCHEM_IUPAC_TRADITIONAL_NAME>
1-[(3aR,4R,6R,6aR)-6-[[(2R,3R,4S,5R)-3,4-dihydroxy-5-methylol-tetrahydrofuran-2-yl]oxymethyl]-2,2-dimethyl-3a,4,6,6a-tetrahydrofuro[3,4-d][1,3]dioxol-4-yl]pyrimidine-2,4-quinone

> <PUBCHEM_IUPAC_INCHI>
InChI=1S/C17H24N2O10/c1-17(2)28-12-8(6-25-15-11(23)10(22)7(5-20)27-15)26-14(13(12)29-17)19-4-3-9(21)18-16(19)24/h3-4,7-8,10-15,20,22-23H,5-6H2,1-2H3,(H,18,21,24)/t7-,8-,10-,11-,12-,13-,14-,15-/m1/s1

> <PUBCHEM_IUPAC_INCHIKEY>
RLEBFPFKBYZLNN-OUQNRHAVSA-N

> <PUBCHEM_XLOGP3_AA>
-2.3

> <PUBCHEM_EXACT_MASS>
416.14309497

> <PUBCHEM_MOLECULAR_FORMULA>
C17H24N2O10

> <PUBCHEM_MOLECULAR_WEIGHT>
416.4

> <PUBCHEM_OPENEYE_CAN_SMILES>
CC1(OC2C(OC(C2O1)N3C=CC(=O)NC3=O)COC4C(C(C(O4)CO)O)O)C

> <PUBCHEM_OPENEYE_ISO_SMILES>
CC1(O[C@@H]2[C@H](O[C@H]([C@@H]2O1)N3C=CC(=O)NC3=O)CO[C@H]4[C@@H]([C@@H]([C@H](O4)CO)O)O)C

> <PUBCHEM_CACTVS_TPSA>
156

> <PUBCHEM_MONOISOTOPIC_WEIGHT>
416.14309497

> <PUBCHEM_TOTAL_CHARGE>
0

> <PUBCHEM_HEAVY_ATOM_COUNT>
29

> <PUBCHEM_ATOM_DEF_STEREO_COUNT>
8

> <PUBCHEM_ATOM_UDEF_STEREO_COUNT>
0

> <PUBCHEM_BOND_DEF_STEREO_COUNT>
0

> <PUBCHEM_BOND_UDEF_STEREO_COUNT>
0

> <PUBCHEM_ISOTOPIC_ATOM_COUNT>
0

> <PUBCHEM_COMPONENT_COUNT>
1

> <PUBCHEM_CACTVS_TAUTO_COUNT>
-1

> <PUBCHEM_COORDINATE_TYPE>
1
5
255

> <PUBCHEM_BONDANNOTATIONS>
16  11  6
11  25  8
11  26  8
12  25  8
12  29  8
13  30  6
14  31  6
15  18  6
24  27  5
26  28  8
28  29  8
19  4  5
20  6  6
23  7  6

$$$$
