 
  -OEChem-10192104052D

 39 41  0     1  0  0  0  0  0999 V2000
    8.1648   -2.5225    0.0000 O   0  0  0  0  0  0  0  0  0  0  0  0
    8.1648   -0.7905    0.0000 O   0  0  0  0  0  0  0  0  0  0  0  0
    2.5369   -0.6565    0.0000 O   0  0  0  0  0  0  0  0  0  0  0  0
    2.5369   -2.6565    0.0000 O   0  0  0  0  0  0  0  0  0  0  0  0
    8.6596    1.4617    0.0000 O   0  0  0  0  0  0  0  0  0  0  0  0
    7.3239    2.9503    0.0000 O   0  0  0  0  0  0  0  0  0  0  0  0
    6.6648   -1.6565    0.0000 C   0  0  3  0  0  0  0  0  0  0  0  0
    6.0812   -0.8518    0.0000 C   0  0  3  0  0  0  0  0  0  0  0  0
    6.0812   -2.4612    0.0000 C   0  0  3  0  0  0  0  0  0  0  0  0
    5.1350   -1.1565    0.0000 C   0  0  0  0  0  0  0  0  0  0  0  0
    5.1350   -2.1565    0.0000 C   0  0  0  0  0  0  0  0  0  0  0  0
    6.3919    0.0987    0.0000 C   0  0  0  0  0  0  0  0  0  0  0  0
    6.3919   -3.4118    0.0000 C   0  0  0  0  0  0  0  0  0  0  0  0
    7.6648   -1.6565    0.0000 C   0  0  0  0  0  0  0  0  0  0  0  0
    4.2690   -0.6565    0.0000 C   0  0  0  0  0  0  0  0  0  0  0  0
    4.2690   -2.6565    0.0000 C   0  0  0  0  0  0  0  0  0  0  0  0
    3.4030   -1.1565    0.0000 C   0  0  0  0  0  0  0  0  0  0  0  0
    3.4030   -2.1565    0.0000 C   0  0  0  0  0  0  0  0  0  0  0  0
    7.3704    0.3050    0.0000 C   0  0  0  0  0  0  0  0  0  0  0  0
    5.7240    0.8430    0.0000 C   0  0  0  0  0  0  0  0  0  0  0  0
    7.6811    1.2555    0.0000 C   0  0  0  0  0  0  0  0  0  0  0  0
    6.0347    1.7936    0.0000 C   0  0  0  0  0  0  0  0  0  0  0  0
    7.0132    1.9998    0.0000 C   0  0  0  0  0  0  0  0  0  0  0  0
    6.9466   -2.2088    0.0000 H   0  0  0  0  0  0  0  0  0  0  0  0
    6.6937   -0.7556    0.0000 H   0  0  0  0  0  0  0  0  0  0  0  0
    5.6438   -2.9006    0.0000 H   0  0  0  0  0  0  0  0  0  0  0  0
    5.8026   -3.6044    0.0000 H   0  0  0  0  0  0  0  0  0  0  0  0
    6.5845   -4.0011    0.0000 H   0  0  0  0  0  0  0  0  0  0  0  0
    6.9812   -3.2192    0.0000 H   0  0  0  0  0  0  0  0  0  0  0  0
    4.2690   -0.0365    0.0000 H   0  0  0  0  0  0  0  0  0  0  0  0
    4.2690   -3.2765    0.0000 H   0  0  0  0  0  0  0  0  0  0  0  0
    7.7845   -0.1565    0.0000 H   0  0  0  0  0  0  0  0  0  0  0  0
    5.1174    0.7152    0.0000 H   0  0  0  0  0  0  0  0  0  0  0  0
    5.6207    2.2550    0.0000 H   0  0  0  0  0  0  0  0  0  0  0  0
    8.7848   -2.5225    0.0000 H   0  0  0  0  0  0  0  0  0  0  0  0
    2.0000   -0.9665    0.0000 H   0  0  0  0  0  0  0  0  0  0  0  0
    2.5369   -3.2765    0.0000 H   0  0  0  0  0  0  0  0  0  0  0  0
    8.8522    2.0510    0.0000 H   0  0  0  0  0  0  0  0  0  0  0  0
    6.9098    3.4118    0.0000 H   0  0  0  0  0  0  0  0  0  0  0  0
  1 14  1  0  0  0  0
  1 35  1  0  0  0  0
  2 14  2  0  0  0  0
  3 17  1  0  0  0  0
  3 36  1  0  0  0  0
  4 18  1  0  0  0  0
  4 37  1  0  0  0  0
  5 21  1  0  0  0  0
  5 38  1  0  0  0  0
  6 23  1  0  0  0  0
  6 39  1  0  0  0  0
  7  8  1  0  0  0  0
  7  9  1  0  0  0  0
  7 14  1  0  0  0  0
  7 24  1  0  0  0  0
  8 10  1  0  0  0  0
  8 12  1  0  0  0  0
  8 25  1  0  0  0  0
  9 11  1  0  0  0  0
  9 13  1  0  0  0  0
  9 26  1  0  0  0  0
 10 11  1  0  0  0  0
 10 15  2  0  0  0  0
 11 16  2  0  0  0  0
 12 19  2  0  0  0  0
 12 20  1  0  0  0  0
 13 27  1  0  0  0  0
 13 28  1  0  0  0  0
 13 29  1  0  0  0  0
 15 17  1  0  0  0  0
 15 30  1  0  0  0  0
 16 18  1  0  0  0  0
 16 31  1  0  0  0  0
 17 18  2  0  0  0  0
 19 21  1  0  0  0  0
 19 32  1  0  0  0  0
 20 22  2  0  0  0  0
 20 33  1  0  0  0  0
 21 23  2  0  0  0  0
 22 23  1  0  0  0  0
 22 34  1  0  0  0  0
M  END
> <PUBCHEM_COMPOUND_CID>
90259608

> <PUBCHEM_COMPOUND_CANONICALIZED>
1

> <PUBCHEM_CACTVS_COMPLEXITY>
454

> <PUBCHEM_CACTVS_HBOND_ACCEPTOR>
6

> <PUBCHEM_CACTVS_HBOND_DONOR>
5

> <PUBCHEM_CACTVS_ROTATABLE_BOND>
2

> <PUBCHEM_CACTVS_SUBSKEYS>
AAADceB4OAAAAAAAAAAAAAAAAAAAAYAAAAAwYAAAAAAAAGABQAAAGgAACAAADQSAmAAyDoAAAgCIAiDSCAACAAAgIAAIiAEGiIgJJjKCERKAcAEkwBEJmAeIyPCOoAABAAAQQABAAAIAACCAAQAACAAAAA==

> <PUBCHEM_IUPAC_OPENEYE_NAME>
1-(3,4-dihydroxyphenyl)-5,6-dihydroxy-3-methyl-indane-2-carboxylic acid

> <PUBCHEM_IUPAC_CAS_NAME>
1-(3,4-dihydroxyphenyl)-5,6-dihydroxy-3-methyl-2,3-dihydro-1H-indene-2-carboxylic acid

> <PUBCHEM_IUPAC_NAME_MARKUP>
1-(3,4-dihydroxyphenyl)-5,6-dihydroxy-3-methyl-2,3-dihydro-1<I>H</I>-indene-2-carboxylic acid

> <PUBCHEM_IUPAC_NAME>
1-(3,4-dihydroxyphenyl)-5,6-dihydroxy-3-methyl-2,3-dihydro-1H-indene-2-carboxylic acid

> <PUBCHEM_IUPAC_SYSTEMATIC_NAME>
1-[3,4-bis(oxidanyl)phenyl]-3-methyl-5,6-bis(oxidanyl)-2,3-dihydro-1H-indene-2-carboxylic acid

> <PUBCHEM_IUPAC_TRADITIONAL_NAME>
1-(3,4-dihydroxyphenyl)-5,6-dihydroxy-3-methyl-indane-2-carboxylic acid

> <PUBCHEM_IUPAC_INCHI>
InChI=1S/C17H16O6/c1-7-9-5-13(20)14(21)6-10(9)16(15(7)17(22)23)8-2-3-11(18)12(19)4-8/h2-7,15-16,18-21H,1H3,(H,22,23)

> <PUBCHEM_IUPAC_INCHIKEY>
GCEZFVZKPVSGTJ-UHFFFAOYSA-N

> <PUBCHEM_XLOGP3_AA>
2.1

> <PUBCHEM_EXACT_MASS>
316.09468823

> <PUBCHEM_MOLECULAR_FORMULA>
C17H16O6

> <PUBCHEM_MOLECULAR_WEIGHT>
316.30

> <PUBCHEM_OPENEYE_CAN_SMILES>
CC1C(C(C2=CC(=C(C=C12)O)O)C3=CC(=C(C=C3)O)O)C(=O)O

> <PUBCHEM_OPENEYE_ISO_SMILES>
CC1C(C(C2=CC(=C(C=C12)O)O)C3=CC(=C(C=C3)O)O)C(=O)O

> <PUBCHEM_CACTVS_TPSA>
118

> <PUBCHEM_MONOISOTOPIC_WEIGHT>
316.09468823

> <PUBCHEM_TOTAL_CHARGE>
0

> <PUBCHEM_HEAVY_ATOM_COUNT>
23

> <PUBCHEM_ATOM_DEF_STEREO_COUNT>
0

> <PUBCHEM_ATOM_UDEF_STEREO_COUNT>
3

> <PUBCHEM_BOND_DEF_STEREO_COUNT>
0

> <PUBCHEM_BOND_UDEF_STEREO_COUNT>
0

> <PUBCHEM_ISOTOPIC_ATOM_COUNT>
0

> <PUBCHEM_COMPONENT_COUNT>
1

> <PUBCHEM_CACTVS_TAUTO_COUNT>
-1

> <PUBCHEM_COORDINATE_TYPE>
1
5
255

> <PUBCHEM_BONDANNOTATIONS>
10  11  8
10  15  8
11  16  8
12  19  8
12  20  8
15  17  8
16  18  8
17  18  8
19  21  8
20  22  8
21  23  8
22  23  8
7  14  3
8  12  3
9  13  3

$$$$
