 
  -OEChem-10192103582D

 49 48  0     0  0  0  0  0  0999 V2000
   12.7583    0.8175    0.0000 O   0  0  0  0  0  0  0  0  0  0  0  0
   13.7583   -0.9145    0.0000 O   0  0  0  0  0  0  0  0  0  0  0  0
   14.9904   -0.0485    0.0000 O   0  0  0  0  0  0  0  0  0  0  0  0
   14.1244    1.4515    0.0000 O   0  0  0  0  0  0  0  0  0  0  0  0
    8.0622   -0.0485    0.0000 C   0  0  0  0  0  0  0  0  0  0  0  0
    8.9282   -0.5485    0.0000 C   0  0  0  0  0  0  0  0  0  0  0  0
    7.1962   -0.5485    0.0000 C   0  0  0  0  0  0  0  0  0  0  0  0
    9.7942   -0.0485    0.0000 C   0  0  0  0  0  0  0  0  0  0  0  0
    6.3301   -0.0485    0.0000 C   0  0  0  0  0  0  0  0  0  0  0  0
   10.6603   -0.5485    0.0000 C   0  0  0  0  0  0  0  0  0  0  0  0
    5.4641   -0.5485    0.0000 C   0  0  0  0  0  0  0  0  0  0  0  0
   11.5263   -0.0485    0.0000 C   0  0  0  0  0  0  0  0  0  0  0  0
    4.5981   -0.0485    0.0000 C   0  0  0  0  0  0  0  0  0  0  0  0
   12.3923   -0.5485    0.0000 C   0  0  0  0  0  0  0  0  0  0  0  0
    3.7320   -0.5485    0.0000 C   0  0  0  0  0  0  0  0  0  0  0  0
   13.2583   -0.0485    0.0000 C   0  0  0  0  0  0  0  0  0  0  0  0
    2.8660   -0.0485    0.0000 C   0  0  0  0  0  0  0  0  0  0  0  0
    2.0000   -0.5485    0.0000 C   0  0  0  0  0  0  0  0  0  0  0  0
   14.1244    0.4515    0.0000 C   0  0  0  0  0  0  0  0  0  0  0  0
    8.4607    0.4264    0.0000 H   0  0  0  0  0  0  0  0  0  0  0  0
    7.6636    0.4264    0.0000 H   0  0  0  0  0  0  0  0  0  0  0  0
    8.5297   -1.0235    0.0000 H   0  0  0  0  0  0  0  0  0  0  0  0
    9.3267   -1.0235    0.0000 H   0  0  0  0  0  0  0  0  0  0  0  0
    6.7976   -1.0235    0.0000 H   0  0  0  0  0  0  0  0  0  0  0  0
    7.5947   -1.0235    0.0000 H   0  0  0  0  0  0  0  0  0  0  0  0
   10.1928    0.4264    0.0000 H   0  0  0  0  0  0  0  0  0  0  0  0
    9.3957    0.4264    0.0000 H   0  0  0  0  0  0  0  0  0  0  0  0
    6.7287    0.4264    0.0000 H   0  0  0  0  0  0  0  0  0  0  0  0
    5.9316    0.4264    0.0000 H   0  0  0  0  0  0  0  0  0  0  0  0
   10.2617   -1.0235    0.0000 H   0  0  0  0  0  0  0  0  0  0  0  0
   11.0588   -1.0235    0.0000 H   0  0  0  0  0  0  0  0  0  0  0  0
    5.0656   -1.0235    0.0000 H   0  0  0  0  0  0  0  0  0  0  0  0
    5.8626   -1.0235    0.0000 H   0  0  0  0  0  0  0  0  0  0  0  0
   11.9248    0.4264    0.0000 H   0  0  0  0  0  0  0  0  0  0  0  0
   11.1278    0.4264    0.0000 H   0  0  0  0  0  0  0  0  0  0  0  0
    4.9966    0.4264    0.0000 H   0  0  0  0  0  0  0  0  0  0  0  0
    4.1996    0.4264    0.0000 H   0  0  0  0  0  0  0  0  0  0  0  0
   11.9938   -1.0235    0.0000 H   0  0  0  0  0  0  0  0  0  0  0  0
   12.7908   -1.0235    0.0000 H   0  0  0  0  0  0  0  0  0  0  0  0
    3.3335   -1.0235    0.0000 H   0  0  0  0  0  0  0  0  0  0  0  0
    4.1306   -1.0235    0.0000 H   0  0  0  0  0  0  0  0  0  0  0  0
    3.2646    0.4264    0.0000 H   0  0  0  0  0  0  0  0  0  0  0  0
    2.4675    0.4264    0.0000 H   0  0  0  0  0  0  0  0  0  0  0  0
    1.6900   -0.0116    0.0000 H   0  0  0  0  0  0  0  0  0  0  0  0
    1.4631   -0.8585    0.0000 H   0  0  0  0  0  0  0  0  0  0  0  0
    2.3100   -1.0855    0.0000 H   0  0  0  0  0  0  0  0  0  0  0  0
   12.1383    0.8175    0.0000 H   0  0  0  0  0  0  0  0  0  0  0  0
   13.4483   -1.4515    0.0000 H   0  0  0  0  0  0  0  0  0  0  0  0
   15.5273    0.2615    0.0000 H   0  0  0  0  0  0  0  0  0  0  0  0
  1 16  1  0  0  0  0
  1 47  1  0  0  0  0
  2 16  1  0  0  0  0
  2 48  1  0  0  0  0
  3 19  1  0  0  0  0
  3 49  1  0  0  0  0
  4 19  2  0  0  0  0
  5  6  1  0  0  0  0
  5  7  1  0  0  0  0
  5 20  1  0  0  0  0
  5 21  1  0  0  0  0
  6  8  1  0  0  0  0
  6 22  1  0  0  0  0
  6 23  1  0  0  0  0
  7  9  1  0  0  0  0
  7 24  1  0  0  0  0
  7 25  1  0  0  0  0
  8 10  1  0  0  0  0
  8 26  1  0  0  0  0
  8 27  1  0  0  0  0
  9 11  1  0  0  0  0
  9 28  1  0  0  0  0
  9 29  1  0  0  0  0
 10 12  1  0  0  0  0
 10 30  1  0  0  0  0
 10 31  1  0  0  0  0
 11 13  1  0  0  0  0
 11 32  1  0  0  0  0
 11 33  1  0  0  0  0
 12 14  1  0  0  0  0
 12 34  1  0  0  0  0
 12 35  1  0  0  0  0
 13 15  1  0  0  0  0
 13 36  1  0  0  0  0
 13 37  1  0  0  0  0
 14 16  1  0  0  0  0
 14 38  1  0  0  0  0
 14 39  1  0  0  0  0
 15 17  1  0  0  0  0
 15 40  1  0  0  0  0
 15 41  1  0  0  0  0
 16 19  1  0  0  0  0
 17 18  1  0  0  0  0
 17 42  1  0  0  0  0
 17 43  1  0  0  0  0
 18 44  1  0  0  0  0
 18 45  1  0  0  0  0
 18 46  1  0  0  0  0
M  END
> <PUBCHEM_COMPOUND_CID>
87933615

> <PUBCHEM_COMPOUND_CANONICALIZED>
1

> <PUBCHEM_CACTVS_COMPLEXITY>
226

> <PUBCHEM_CACTVS_HBOND_ACCEPTOR>
4

> <PUBCHEM_CACTVS_HBOND_DONOR>
3

> <PUBCHEM_CACTVS_ROTATABLE_BOND>
13

> <PUBCHEM_CACTVS_SUBSKEYS>
AAADceBwOAAAAAAAAAAAAAAAAAAAAAAAAAAAAAAAAAAAAAAAAAAAGgAACAAACASAgAACCAAAAgAIAACQCAIAAAAAAAAAAAFAAAABABIAAAAAQAAEAAABAAGIyKCAAAAAAAAAAAAAAAAAAAAAAAAAAAAAAA==

> <PUBCHEM_IUPAC_OPENEYE_NAME>
2,2-dihydroxypentadecanoic acid

> <PUBCHEM_IUPAC_CAS_NAME>
2,2-dihydroxypentadecanoic acid

> <PUBCHEM_IUPAC_NAME_MARKUP>
2,2-dihydroxypentadecanoic acid

> <PUBCHEM_IUPAC_NAME>
2,2-dihydroxypentadecanoic acid

> <PUBCHEM_IUPAC_SYSTEMATIC_NAME>
2,2-bis(oxidanyl)pentadecanoic acid

> <PUBCHEM_IUPAC_TRADITIONAL_NAME>
2,2-dihydroxypentadecanoic acid

> <PUBCHEM_IUPAC_INCHI>
InChI=1S/C15H30O4/c1-2-3-4-5-6-7-8-9-10-11-12-13-15(18,19)14(16)17/h18-19H,2-13H2,1H3,(H,16,17)

> <PUBCHEM_IUPAC_INCHIKEY>
UGWLFZXBDWNKQX-UHFFFAOYSA-N

> <PUBCHEM_XLOGP3_AA>
5.1

> <PUBCHEM_EXACT_MASS>
274.21440943

> <PUBCHEM_MOLECULAR_FORMULA>
C15H30O4

> <PUBCHEM_MOLECULAR_WEIGHT>
274.40

> <PUBCHEM_OPENEYE_CAN_SMILES>
CCCCCCCCCCCCCC(C(=O)O)(O)O

> <PUBCHEM_OPENEYE_ISO_SMILES>
CCCCCCCCCCCCCC(C(=O)O)(O)O

> <PUBCHEM_CACTVS_TPSA>
77.8

> <PUBCHEM_MONOISOTOPIC_WEIGHT>
274.21440943

> <PUBCHEM_TOTAL_CHARGE>
0

> <PUBCHEM_HEAVY_ATOM_COUNT>
19

> <PUBCHEM_ATOM_DEF_STEREO_COUNT>
0

> <PUBCHEM_ATOM_UDEF_STEREO_COUNT>
0

> <PUBCHEM_BOND_DEF_STEREO_COUNT>
0

> <PUBCHEM_BOND_UDEF_STEREO_COUNT>
0

> <PUBCHEM_ISOTOPIC_ATOM_COUNT>
0

> <PUBCHEM_COMPONENT_COUNT>
1

> <PUBCHEM_CACTVS_TAUTO_COUNT>
-1

> <PUBCHEM_COORDINATE_TYPE>
1
5
255

$$$$
