 
  -OEChem-10192103402D

 19 20  0     0  0  0  0  0  0999 V2000
    3.4030    0.9446    0.0000 S   0  0  0  0  0  0  0  0  0  0  0  0
    7.5309   -0.0554    0.0000 O   0  0  0  0  0  0  0  0  0  0  0  0
    2.5369    1.4446    0.0000 O   0  0  0  0  0  0  0  0  0  0  0  0
    2.9030    0.0786    0.0000 O   0  0  0  0  0  0  0  0  0  0  0  0
    3.9030    1.8106    0.0000 O   0  0  0  0  0  0  0  0  0  0  0  0
    7.2579    1.6999    0.0000 O   0  0  0  0  0  0  0  0  0  0  0  0
    7.2579   -1.8106    0.0000 O   0  0  0  0  0  0  0  0  0  0  0  0
    6.0010    0.4446    0.0000 C   0  0  0  0  0  0  0  0  0  0  0  0
    6.0010   -0.5554    0.0000 C   0  0  0  0  0  0  0  0  0  0  0  0
    4.2690    0.4446    0.0000 C   0  0  0  0  0  0  0  0  0  0  0  0
    5.1350    0.9446    0.0000 C   0  0  0  0  0  0  0  0  0  0  0  0
    4.2690   -0.5554    0.0000 C   0  0  0  0  0  0  0  0  0  0  0  0
    5.1350   -1.0554    0.0000 C   0  0  0  0  0  0  0  0  0  0  0  0
    6.9473    0.7493    0.0000 C   0  0  0  0  0  0  0  0  0  0  0  0
    6.9473   -0.8601    0.0000 C   0  0  0  0  0  0  0  0  0  0  0  0
    5.1350    1.5646    0.0000 H   0  0  0  0  0  0  0  0  0  0  0  0
    3.7320   -0.8654    0.0000 H   0  0  0  0  0  0  0  0  0  0  0  0
    5.1350   -1.6754    0.0000 H   0  0  0  0  0  0  0  0  0  0  0  0
    2.0000    1.1346    0.0000 H   0  0  0  0  0  0  0  0  0  0  0  0
  1  3  1  0  0  0  0
  1  4  2  0  0  0  0
  1  5  2  0  0  0  0
  1 10  1  0  0  0  0
  2 14  1  0  0  0  0
  2 15  1  0  0  0  0
  3 19  1  0  0  0  0
  6 14  2  0  0  0  0
  7 15  2  0  0  0  0
  8  9  2  0  0  0  0
  8 11  1  0  0  0  0
  8 14  1  0  0  0  0
  9 13  1  0  0  0  0
  9 15  1  0  0  0  0
 10 11  2  0  0  0  0
 10 12  1  0  0  0  0
 11 16  1  0  0  0  0
 12 13  2  0  0  0  0
 12 17  1  0  0  0  0
 13 18  1  0  0  0  0
M  END
> <PUBCHEM_COMPOUND_CID>
67251

> <PUBCHEM_COMPOUND_CANONICALIZED>
1

> <PUBCHEM_CACTVS_COMPLEXITY>
405

> <PUBCHEM_CACTVS_HBOND_ACCEPTOR>
6

> <PUBCHEM_CACTVS_HBOND_DONOR>
1

> <PUBCHEM_CACTVS_ROTATABLE_BOND>
1

> <PUBCHEM_CACTVS_SUBSKEYS>
AAADcYBwOABAAAAAAAAAAAAAAAAAASAAAAAwAAAAAAAAAEgBAAAAGgQACAAADACA2AAwCYAABIKIAiDSCHBCAEAkAAAIiBkACMgIJjKANRiCMQAkwAEIqYeLyKCOkAAAgAAQAAAgAAEAACAAAAAAAAAAAA==

> <PUBCHEM_IUPAC_OPENEYE_NAME>
1,3-dioxoisobenzofuran-5-sulfonic acid

> <PUBCHEM_IUPAC_CAS_NAME>
1,3-dioxo-5-isobenzofuransulfonic acid

> <PUBCHEM_IUPAC_NAME_MARKUP>
1,3-dioxo-2-benzofuran-5-sulfonic acid

> <PUBCHEM_IUPAC_NAME>
1,3-dioxo-2-benzofuran-5-sulfonic acid

> <PUBCHEM_IUPAC_SYSTEMATIC_NAME>
1,3-bis(oxidanylidene)-2-benzofuran-5-sulfonic acid

> <PUBCHEM_IUPAC_TRADITIONAL_NAME>
1,3-diketophthalan-5-sulfonic acid

> <PUBCHEM_IUPAC_INCHI>
InChI=1S/C8H4O6S/c9-7-5-2-1-4(15(11,12)13)3-6(5)8(10)14-7/h1-3H,(H,11,12,13)

> <PUBCHEM_IUPAC_INCHIKEY>
VJDQIBUPTBGINF-UHFFFAOYSA-N

> <PUBCHEM_XLOGP3_AA>
0

> <PUBCHEM_EXACT_MASS>
227.97285902

> <PUBCHEM_MOLECULAR_FORMULA>
C8H4O6S

> <PUBCHEM_MOLECULAR_WEIGHT>
228.18

> <PUBCHEM_OPENEYE_CAN_SMILES>
C1=CC2=C(C=C1S(=O)(=O)O)C(=O)OC2=O

> <PUBCHEM_OPENEYE_ISO_SMILES>
C1=CC2=C(C=C1S(=O)(=O)O)C(=O)OC2=O

> <PUBCHEM_CACTVS_TPSA>
106

> <PUBCHEM_MONOISOTOPIC_WEIGHT>
227.97285902

> <PUBCHEM_TOTAL_CHARGE>
0

> <PUBCHEM_HEAVY_ATOM_COUNT>
15

> <PUBCHEM_ATOM_DEF_STEREO_COUNT>
0

> <PUBCHEM_ATOM_UDEF_STEREO_COUNT>
0

> <PUBCHEM_BOND_DEF_STEREO_COUNT>
0

> <PUBCHEM_BOND_UDEF_STEREO_COUNT>
0

> <PUBCHEM_ISOTOPIC_ATOM_COUNT>
0

> <PUBCHEM_COMPONENT_COUNT>
1

> <PUBCHEM_CACTVS_TAUTO_COUNT>
1

> <PUBCHEM_COORDINATE_TYPE>
1
5
255

> <PUBCHEM_BONDANNOTATIONS>
10  11  8
10  12  8
12  13  8
8  11  8
8  9  8
9  13  8

$$$$
