 
  -OEChem-10192104392D

 95100  0     1  0  0  0  0  0999 V2000
    8.3892    3.1869    0.0000 O   0  0  0  0  0  0  0  0  0  0  0  0
    6.1087    1.1336    0.0000 O   0  0  0  0  0  0  0  0  0  0  0  0
   11.9578    0.1924    0.0000 O   0  0  0  0  0  0  0  0  0  0  0  0
   11.9578    2.1924    0.0000 O   0  0  0  0  0  0  0  0  0  0  0  0
    4.2667    5.1191    0.0000 O   0  0  0  0  0  0  0  0  0  0  0  0
    9.3597   -2.3076    0.0000 O   0  0  0  0  0  0  0  0  0  0  0  0
   11.0918   -2.3076    0.0000 O   0  0  0  0  0  0  0  0  0  0  0  0
    2.5364    4.1161    0.0000 O   0  0  0  0  0  0  0  0  0  0  0  0
    9.3597   -5.3076    0.0000 O   0  0  0  0  0  0  0  0  0  0  0  0
   11.0918   -4.3076    0.0000 O   0  0  0  0  0  0  0  0  0  0  0  0
    7.6277   -4.3076    0.0000 O   0  0  0  0  0  0  0  0  0  0  0  0
   12.8238   -2.3076    0.0000 O   0  0  0  0  0  0  0  0  0  0  0  0
    7.6277   -1.3076    0.0000 O   0  0  0  0  0  0  0  0  0  0  0  0
   14.5559    1.6924    0.0000 O   0  0  0  0  0  0  0  0  0  0  0  0
   16.2879    0.6924    0.0000 O   0  0  0  0  0  0  0  0  0  0  0  0
    7.5802    1.7856    0.0000 C   0  0  3  0  0  0  0  0  0  0  0  0
    6.9110    2.5288    0.0000 C   0  0  3  0  0  0  0  0  0  0  0  0
    8.4937    2.1924    0.0000 C   0  0  3  0  0  0  0  0  0  0  0  0
    6.0040    2.1221    0.0000 C   0  0  3  0  0  0  0  0  0  0  0  0
    7.4110    3.3948    0.0000 C   0  0  0  0  0  0  0  0  0  0  0  0
    7.0809    0.9260    0.0000 C   0  0  0  0  0  0  0  0  0  0  0  0
    9.3597    1.6924    0.0000 C   0  0  0  0  0  0  0  0  0  0  0  0
    5.1371    2.6206    0.0000 C   0  0  0  0  0  0  0  0  0  0  0  0
   10.2258    2.1924    0.0000 C   0  0  0  0  0  0  0  0  0  0  0  0
    9.3597    0.6924    0.0000 C   0  0  0  0  0  0  0  0  0  0  0  0
    5.1353    3.6206    0.0000 C   0  0  0  0  0  0  0  0  0  0  0  0
    4.2719    2.1191    0.0000 C   0  0  0  0  0  0  0  0  0  0  0  0
   11.0918    1.6924    0.0000 C   0  0  0  0  0  0  0  0  0  0  0  0
   10.2258    0.1924    0.0000 C   0  0  0  0  0  0  0  0  0  0  0  0
    4.2684    4.1191    0.0000 C   0  0  0  0  0  0  0  0  0  0  0  0
    3.4050    2.6176    0.0000 C   0  0  0  0  0  0  0  0  0  0  0  0
   11.0918    0.6924    0.0000 C   0  0  0  0  0  0  0  0  0  0  0  0
    3.4033    3.6176    0.0000 C   0  0  0  0  0  0  0  0  0  0  0  0
    9.3597   -4.3076    0.0000 C   0  0  2  0  0  0  0  0  0  0  0  0
   10.2258   -3.8076    0.0000 C   0  0  2  0  0  0  0  0  0  0  0  0
    8.4937   -3.8076    0.0000 C   0  0  1  0  0  0  0  0  0  0  0  0
   10.2258   -2.8076    0.0000 C   0  0  1  0  0  0  0  0  0  0  0  0
    8.4937   -2.8076    0.0000 C   0  0  1  0  0  0  0  0  0  0  0  0
   11.9578   -0.8076    0.0000 C   0  0  3  0  0  0  0  0  0  0  0  0
   11.0918   -1.3076    0.0000 C   0  0  0  0  0  0  0  0  0  0  0  0
   12.8238   -1.3076    0.0000 C   0  0  3  0  0  0  0  0  0  0  0  0
    7.6277   -2.3076    0.0000 C   0  0  0  0  0  0  0  0  0  0  0  0
   12.8238    1.6924    0.0000 C   0  0  0  0  0  0  0  0  0  0  0  0
    3.3998    5.6176    0.0000 C   0  0  0  0  0  0  0  0  0  0  0  0
   13.6899   -0.8076    0.0000 C   0  0  0  0  0  0  0  0  0  0  0  0
   13.6899    0.1924    0.0000 C   0  0  0  0  0  0  0  0  0  0  0  0
   14.5559   -1.3076    0.0000 C   0  0  0  0  0  0  0  0  0  0  0  0
   14.5559    0.6924    0.0000 C   0  0  0  0  0  0  0  0  0  0  0  0
   15.4219   -0.8076    0.0000 C   0  0  0  0  0  0  0  0  0  0  0  0
   15.4219    0.1924    0.0000 C   0  0  0  0  0  0  0  0  0  0  0  0
   15.4219    2.1924    0.0000 C   0  0  0  0  0  0  0  0  0  0  0  0
    7.9944    1.3244    0.0000 H   0  0  0  0  0  0  0  0  0  0  0  0
    6.4956    2.9890    0.0000 H   0  0  0  0  0  0  0  0  0  0  0  0
    9.0137    2.5301    0.0000 H   0  0  0  0  0  0  0  0  0  0  0  0
    5.4844    1.7838    0.0000 H   0  0  0  0  0  0  0  0  0  0  0  0
    7.6026    3.9845    0.0000 H   0  0  0  0  0  0  0  0  0  0  0  0
    6.8446    3.6470    0.0000 H   0  0  0  0  0  0  0  0  0  0  0  0
    6.8885    0.3367    0.0000 H   0  0  0  0  0  0  0  0  0  0  0  0
    7.6468    0.6727    0.0000 H   0  0  0  0  0  0  0  0  0  0  0  0
   10.2258    2.8124    0.0000 H   0  0  0  0  0  0  0  0  0  0  0  0
    8.8228    0.3824    0.0000 H   0  0  0  0  0  0  0  0  0  0  0  0
    5.6717    3.9315    0.0000 H   0  0  0  0  0  0  0  0  0  0  0  0
    4.2730    1.4991    0.0000 H   0  0  0  0  0  0  0  0  0  0  0  0
   10.2258   -0.4276    0.0000 H   0  0  0  0  0  0  0  0  0  0  0  0
    2.8686    2.3067    0.0000 H   0  0  0  0  0  0  0  0  0  0  0  0
    8.8228   -4.6176    0.0000 H   0  0  0  0  0  0  0  0  0  0  0  0
   10.2258   -4.4276    0.0000 H   0  0  0  0  0  0  0  0  0  0  0  0
    7.9568   -3.4976    0.0000 H   0  0  0  0  0  0  0  0  0  0  0  0
   10.7627   -3.1176    0.0000 H   0  0  0  0  0  0  0  0  0  0  0  0
    8.4937   -2.1876    0.0000 H   0  0  0  0  0  0  0  0  0  0  0  0
   12.4948   -0.4976    0.0000 H   0  0  0  0  0  0  0  0  0  0  0  0
   10.8797   -0.7250    0.0000 H   0  0  0  0  0  0  0  0  0  0  0  0
   10.4812   -1.4153    0.0000 H   0  0  0  0  0  0  0  0  0  0  0  0
   12.2869   -1.6176    0.0000 H   0  0  0  0  0  0  0  0  0  0  0  0
    7.0171   -2.2000    0.0000 H   0  0  0  0  0  0  0  0  0  0  0  0
    7.4156   -2.8902    0.0000 H   0  0  0  0  0  0  0  0  0  0  0  0
    2.0000    3.8052    0.0000 H   0  0  0  0  0  0  0  0  0  0  0  0
   12.5138    1.1554    0.0000 H   0  0  0  0  0  0  0  0  0  0  0  0
   13.3608    1.3824    0.0000 H   0  0  0  0  0  0  0  0  0  0  0  0
   13.1338    2.2293    0.0000 H   0  0  0  0  0  0  0  0  0  0  0  0
    8.8228   -5.6176    0.0000 H   0  0  0  0  0  0  0  0  0  0  0  0
   11.6287   -3.9976    0.0000 H   0  0  0  0  0  0  0  0  0  0  0  0
    7.0908   -3.9976    0.0000 H   0  0  0  0  0  0  0  0  0  0  0  0
    3.7089    6.1551    0.0000 H   0  0  0  0  0  0  0  0  0  0  0  0
    2.8624    5.9267    0.0000 H   0  0  0  0  0  0  0  0  0  0  0  0
    3.0908    5.0801    0.0000 H   0  0  0  0  0  0  0  0  0  0  0  0
   13.3608   -2.6176    0.0000 H   0  0  0  0  0  0  0  0  0  0  0  0
    7.0908   -0.9976    0.0000 H   0  0  0  0  0  0  0  0  0  0  0  0
   13.1529    0.5024    0.0000 H   0  0  0  0  0  0  0  0  0  0  0  0
   14.5559   -1.9276    0.0000 H   0  0  0  0  0  0  0  0  0  0  0  0
   15.9589   -1.1176    0.0000 H   0  0  0  0  0  0  0  0  0  0  0  0
   16.8249    0.3824    0.0000 H   0  0  0  0  0  0  0  0  0  0  0  0
   15.7319    1.6554    0.0000 H   0  0  0  0  0  0  0  0  0  0  0  0
   15.9589    2.5024    0.0000 H   0  0  0  0  0  0  0  0  0  0  0  0
   15.1119    2.7293    0.0000 H   0  0  0  0  0  0  0  0  0  0  0  0
  1 18  1  0  0  0  0
  1 20  1  0  0  0  0
  2 19  1  0  0  0  0
  2 21  1  0  0  0  0
  3 32  1  0  0  0  0
  3 39  1  0  0  0  0
  4 28  1  0  0  0  0
  4 43  1  0  0  0  0
  5 30  1  0  0  0  0
  5 44  1  0  0  0  0
  6 37  1  0  0  0  0
  6 38  1  0  0  0  0
 37  7  1  1  0  0  0
  7 40  1  0  0  0  0
  8 33  1  0  0  0  0
  8 77  1  0  0  0  0
 34  9  1  1  0  0  0
  9 81  1  0  0  0  0
 35 10  1  6  0  0  0
 10 82  1  0  0  0  0
 36 11  1  6  0  0  0
 11 83  1  0  0  0  0
 12 41  1  0  0  0  0
 12 87  1  0  0  0  0
 13 42  1  0  0  0  0
 13 88  1  0  0  0  0
 14 48  1  0  0  0  0
 14 51  1  0  0  0  0
 15 50  1  0  0  0  0
 15 92  1  0  0  0  0
 16 17  1  0  0  0  0
 16 18  1  0  0  0  0
 16 21  1  0  0  0  0
 16 52  1  0  0  0  0
 17 19  1  0  0  0  0
 17 20  1  0  0  0  0
 17 53  1  0  0  0  0
 18 22  1  0  0  0  0
 18 54  1  0  0  0  0
 19 23  1  0  0  0  0
 19 55  1  0  0  0  0
 20 56  1  0  0  0  0
 20 57  1  0  0  0  0
 21 58  1  0  0  0  0
 21 59  1  0  0  0  0
 22 24  2  0  0  0  0
 22 25  1  0  0  0  0
 23 26  2  0  0  0  0
 23 27  1  0  0  0  0
 24 28  1  0  0  0  0
 24 60  1  0  0  0  0
 25 29  2  0  0  0  0
 25 61  1  0  0  0  0
 26 30  1  0  0  0  0
 26 62  1  0  0  0  0
 27 31  2  0  0  0  0
 27 63  1  0  0  0  0
 28 32  2  0  0  0  0
 29 32  1  0  0  0  0
 29 64  1  0  0  0  0
 30 33  2  0  0  0  0
 31 33  1  0  0  0  0
 31 65  1  0  0  0  0
 34 35  1  0  0  0  0
 34 36  1  0  0  0  0
 34 66  1  0  0  0  0
 35 37  1  0  0  0  0
 35 67  1  0  0  0  0
 36 38  1  0  0  0  0
 36 68  1  0  0  0  0
 37 69  1  0  0  0  0
 38 42  1  1  0  0  0
 38 70  1  0  0  0  0
 39 40  1  0  0  0  0
 39 41  1  0  0  0  0
 39 71  1  0  0  0  0
 40 72  1  0  0  0  0
 40 73  1  0  0  0  0
 41 45  1  0  0  0  0
 41 74  1  0  0  0  0
 42 75  1  0  0  0  0
 42 76  1  0  0  0  0
 43 78  1  0  0  0  0
 43 79  1  0  0  0  0
 43 80  1  0  0  0  0
 44 84  1  0  0  0  0
 44 85  1  0  0  0  0
 44 86  1  0  0  0  0
 45 46  2  0  0  0  0
 45 47  1  0  0  0  0
 46 48  1  0  0  0  0
 46 89  1  0  0  0  0
 47 49  2  0  0  0  0
 47 90  1  0  0  0  0
 48 50  2  0  0  0  0
 49 50  1  0  0  0  0
 49 91  1  0  0  0  0
 51 93  1  0  0  0  0
 51 94  1  0  0  0  0
 51 95  1  0  0  0  0
M  END
> <PUBCHEM_COMPOUND_CID>
10985417

> <PUBCHEM_COMPOUND_CANONICALIZED>
1

> <PUBCHEM_CACTVS_COMPLEXITY>
1070

> <PUBCHEM_CACTVS_HBOND_ACCEPTOR>
15

> <PUBCHEM_CACTVS_HBOND_DONOR>
7

> <PUBCHEM_CACTVS_ROTATABLE_BOND>
13

> <PUBCHEM_CACTVS_SUBSKEYS>
AAADcfB8PAAAAAAAAAAAAAAAAAAAASJAAAA0YMEAAAASAAABUAAAGgAACAAADRSwmAMyDoAABgCAAiBCAAACCAAgIAAIiAAGiIgdNiKGMRqieCOlwBEPuAfA4PwOoAABAAAAQABAAAIAAACAAAAAAAAAAA==

> <PUBCHEM_IUPAC_OPENEYE_NAME>
(2R,3R,4S,5S,6R)-2-[3-hydroxy-3-(4-hydroxy-3-methoxy-phenyl)-2-[4-[3-(4-hydroxy-3-methoxy-phenyl)-1,3,3a,4,6,6a-hexahydrofuro[3,4-c]furan-6-yl]-2-methoxy-phenoxy]propoxy]-6-(hydroxymethyl)tetrahydropyran-3,4,5-triol

> <PUBCHEM_IUPAC_CAS_NAME>
(2R,3R,4S,5S,6R)-2-[3-hydroxy-3-(4-hydroxy-3-methoxyphenyl)-2-[4-[3-(4-hydroxy-3-methoxyphenyl)-1,3,3a,4,6,6a-hexahydrofuro[3,4-c]furan-6-yl]-2-methoxyphenoxy]propoxy]-6-(hydroxymethyl)oxane-3,4,5-triol

> <PUBCHEM_IUPAC_NAME_MARKUP>
(2<I>R</I>,3<I>R</I>,4<I>S</I>,5<I>S</I>,6<I>R</I>)-2-[3-hydroxy-3-(4-hydroxy-3-methoxyphenyl)-2-[4-[3-(4-hydroxy-3-methoxyphenyl)-1,3,3<I>a</I>,4,6,6<I>a</I>-hexahydrofuro[3,4-c]furan-6-yl]-2-methoxyphenoxy]propoxy]-6-(hydroxymethyl)oxane-3,4,5-triol

> <PUBCHEM_IUPAC_NAME>
(2R,3R,4S,5S,6R)-2-[3-hydroxy-3-(4-hydroxy-3-methoxyphenyl)-2-[4-[3-(4-hydroxy-3-methoxyphenyl)-1,3,3a,4,6,6a-hexahydrofuro[3,4-c]furan-6-yl]-2-methoxyphenoxy]propoxy]-6-(hydroxymethyl)oxane-3,4,5-triol

> <PUBCHEM_IUPAC_SYSTEMATIC_NAME>
(2R,3S,4S,5R,6R)-2-(hydroxymethyl)-6-[2-[2-methoxy-4-[3-(3-methoxy-4-oxidanyl-phenyl)-1,3,3a,4,6,6a-hexahydrofuro[3,4-c]furan-6-yl]phenoxy]-3-(3-methoxy-4-oxidanyl-phenyl)-3-oxidanyl-propoxy]oxane-3,4,5-triol

> <PUBCHEM_IUPAC_TRADITIONAL_NAME>
(2R,3R,4S,5S,6R)-2-[3-hydroxy-3-(4-hydroxy-3-methoxy-phenyl)-2-[4-[3-(4-hydroxy-3-methoxy-phenyl)-1,3,3a,4,6,6a-hexahydrofuro[3,4-c]furan-6-yl]-2-methoxy-phenoxy]propoxy]-6-methylol-tetrahydropyran-3,4,5-triol

> <PUBCHEM_IUPAC_INCHI>
InChI=1S/C36H44O15/c1-44-25-10-17(4-7-22(25)38)30(40)29(16-49-36-33(43)32(42)31(41)28(13-37)51-36)50-24-9-6-19(12-27(24)46-3)35-21-15-47-34(20(21)14-48-35)18-5-8-23(39)26(11-18)45-2/h4-12,20-21,28-43H,13-16H2,1-3H3/t20?,21?,28-,29?,30?,31-,32+,33-,34?,35?,36-/m1/s1

> <PUBCHEM_IUPAC_INCHIKEY>
ACAJCAKDKUCJJV-QLBQWEDFSA-N

> <PUBCHEM_XLOGP3_AA>
0.9

> <PUBCHEM_EXACT_MASS>
716.26802069

> <PUBCHEM_MOLECULAR_FORMULA>
C36H44O15

> <PUBCHEM_MOLECULAR_WEIGHT>
716.7

> <PUBCHEM_OPENEYE_CAN_SMILES>
COC1=C(C=CC(=C1)C2C3COC(C3CO2)C4=CC(=C(C=C4)OC(COC5C(C(C(C(O5)CO)O)O)O)C(C6=CC(=C(C=C6)O)OC)O)OC)O

> <PUBCHEM_OPENEYE_ISO_SMILES>
COC1=C(C=CC(=C1)C2C3COC(C3CO2)C4=CC(=C(C=C4)OC(CO[C@H]5[C@@H]([C@H]([C@@H]([C@H](O5)CO)O)O)O)C(C6=CC(=C(C=C6)O)OC)O)OC)O

> <PUBCHEM_CACTVS_TPSA>
215

> <PUBCHEM_MONOISOTOPIC_WEIGHT>
716.26802069

> <PUBCHEM_TOTAL_CHARGE>
0

> <PUBCHEM_HEAVY_ATOM_COUNT>
51

> <PUBCHEM_ATOM_DEF_STEREO_COUNT>
5

> <PUBCHEM_ATOM_UDEF_STEREO_COUNT>
6

> <PUBCHEM_BOND_DEF_STEREO_COUNT>
0

> <PUBCHEM_BOND_UDEF_STEREO_COUNT>
0

> <PUBCHEM_ISOTOPIC_ATOM_COUNT>
0

> <PUBCHEM_COMPONENT_COUNT>
1

> <PUBCHEM_CACTVS_TAUTO_COUNT>
-1

> <PUBCHEM_COORDINATE_TYPE>
1
5
255

> <PUBCHEM_BONDANNOTATIONS>
35  10  6
36  11  6
41  12  3
16  21  3
17  20  3
18  22  3
19  23  3
22  24  8
22  25  8
23  26  8
23  27  8
24  28  8
25  29  8
26  30  8
27  31  8
28  32  8
29  32  8
30  33  8
31  33  8
38  42  5
39  40  3
45  46  8
45  47  8
46  48  8
47  49  8
48  50  8
49  50  8
37  7  5
34  9  5

$$$$
