 
  -OEChem-10192103582D

 50 52  0     1  0  0  0  0  0999 V2000
    6.9407   -0.0829    0.0000 O   0  0  0  0  0  0  0  0  0  0  0  0
    6.7886    2.5217    0.0000 O   0  0  0  0  0  0  0  0  0  0  0  0
    5.1350    0.0751    0.0000 O   0  0  0  0  0  0  0  0  0  0  0  0
   10.1223    2.0819    0.0000 O   0  0  0  0  0  0  0  0  0  0  0  0
    5.8406    0.1302    0.0000 O   0  0  0  0  0  0  0  0  0  0  0  0
    5.0091    2.6149    0.0000 O   0  0  0  0  0  0  0  0  0  0  0  0
    6.5767   -1.1187    0.0000 O   0  0  0  0  0  0  0  0  0  0  0  0
    6.8671   -1.9249    0.0000 O   0  0  0  0  0  0  0  0  0  0  0  0
   10.0276   -1.4206    0.0000 O   0  0  0  0  0  0  0  0  0  0  0  0
    5.1350   -2.9249    0.0000 O   0  0  0  0  0  0  0  0  0  0  0  0
    3.4030   -1.9249    0.0000 O   0  0  0  0  0  0  0  0  0  0  0  0
   10.2019    0.5718    0.0000 O   0  0  0  0  0  0  0  0  0  0  0  0
    2.5369   -0.4249    0.0000 O   0  0  0  0  0  0  0  0  0  0  0  0
    7.4407    0.7831    0.0000 C   0  0  1  0  0  0  0  0  0  0  0  0
    9.1564    1.8231    0.0000 C   0  0  1  0  0  0  0  0  0  0  0  0
    5.9796    1.1204    0.0000 C   0  0  2  0  0  0  0  0  0  0  0  0
    7.9407    1.6491    0.0000 C   0  0  1  0  0  0  0  0  0  0  0  0
    7.4830   -0.6961    0.0000 C   0  0  0  0  0  0  0  0  0  0  0  0
    5.8751    2.1149    0.0000 C   0  0  3  0  0  0  0  0  0  0  0  0
    6.0010   -0.4249    0.0000 C   0  0  3  0  0  0  0  0  0  0  0  0
    6.0010   -1.4249    0.0000 C   0  0  1  0  0  0  0  0  0  0  0  0
    8.3021   -1.2696    0.0000 C   0  0  0  0  0  0  0  0  0  0  0  0
    9.2956    0.1492    0.0000 C   0  0  0  0  0  0  0  0  0  0  0  0
    9.2084   -0.8470    0.0000 C   0  0  3  0  0  0  0  0  0  0  0  0
    5.1350   -1.9249    0.0000 C   0  0  2  0  0  0  0  0  0  0  0  0
    4.2690   -1.4249    0.0000 C   0  0  1  0  0  0  0  0  0  0  0  0
    4.2690   -0.4249    0.0000 C   0  0  1  0  0  0  0  0  0  0  0  0
    3.4030    0.0751    0.0000 C   0  0  0  0  0  0  0  0  0  0  0  0
    9.0320    2.4305    0.0000 H   0  0  0  0  0  0  0  0  0  0  0  0
    5.3597    1.1312    0.0000 H   0  0  0  0  0  0  0  0  0  0  0  0
    8.3657    2.3852    0.0000 H   0  0  0  0  0  0  0  0  0  0  0  0
    5.3551    1.7773    0.0000 H   0  0  0  0  0  0  0  0  0  0  0  0
    6.0551    0.1927    0.0000 H   0  0  0  0  0  0  0  0  0  0  0  0
    6.0010   -2.0449    0.0000 H   0  0  0  0  0  0  0  0  0  0  0  0
    7.8637   -1.7080    0.0000 H   0  0  0  0  0  0  0  0  0  0  0  0
    8.6578   -1.7775    0.0000 H   0  0  0  0  0  0  0  0  0  0  0  0
    9.7704   -0.5850    0.0000 H   0  0  0  0  0  0  0  0  0  0  0  0
    4.5981   -2.2349    0.0000 H   0  0  0  0  0  0  0  0  0  0  0  0
    4.2690   -2.0449    0.0000 H   0  0  0  0  0  0  0  0  0  0  0  0
    4.2690    0.1951    0.0000 H   0  0  0  0  0  0  0  0  0  0  0  0
   10.2828    2.6808    0.0000 H   0  0  0  0  0  0  0  0  0  0  0  0
    5.4589   -0.3584    0.0000 H   0  0  0  0  0  0  0  0  0  0  0  0
    3.8015    0.5500    0.0000 H   0  0  0  0  0  0  0  0  0  0  0  0
    3.0044    0.5500    0.0000 H   0  0  0  0  0  0  0  0  0  0  0  0
    5.0091    3.2349    0.0000 H   0  0  0  0  0  0  0  0  0  0  0  0
    6.8671   -2.5449    0.0000 H   0  0  0  0  0  0  0  0  0  0  0  0
    9.9736   -2.0382    0.0000 H   0  0  0  0  0  0  0  0  0  0  0  0
    4.5981   -3.2349    0.0000 H   0  0  0  0  0  0  0  0  0  0  0  0
    3.4030   -2.5449    0.0000 H   0  0  0  0  0  0  0  0  0  0  0  0
    2.0000   -0.1149    0.0000 H   0  0  0  0  0  0  0  0  0  0  0  0
 14  1  1  6  0  0  0
  1 20  1  0  0  0  0
  2 17  1  0  0  0  0
  2 19  1  0  0  0  0
  3 20  1  0  0  0  0
  3 27  1  0  0  0  0
 15  4  1  1  0  0  0
  4 41  1  0  0  0  0
 16  5  1  1  0  0  0
  5 42  1  0  0  0  0
  6 19  1  0  0  0  0
  6 45  1  0  0  0  0
  7 18  2  0  0  0  0
 21  8  1  6  0  0  0
  8 46  1  0  0  0  0
  9 24  1  0  0  0  0
  9 47  1  0  0  0  0
 25 10  1  1  0  0  0
 10 48  1  0  0  0  0
 26 11  1  6  0  0  0
 11 49  1  0  0  0  0
 12 23  2  0  0  0  0
 13 28  1  0  0  0  0
 13 50  1  0  0  0  0
 14 15  1  0  0  0  0
 14 16  1  0  0  0  0
 14 18  1  0  0  0  0
 15 17  1  0  0  0  0
 15 29  1  0  0  0  0
 16 19  1  0  0  0  0
 16 30  1  0  0  0  0
 17 23  1  0  0  0  0
 17 31  1  6  0  0  0
 18 22  1  0  0  0  0
 19 32  1  0  0  0  0
 20 21  1  0  0  0  0
 20 33  1  0  0  0  0
 21 25  1  0  0  0  0
 21 34  1  0  0  0  0
 22 24  1  0  0  0  0
 22 35  1  0  0  0  0
 22 36  1  0  0  0  0
 23 24  1  0  0  0  0
 24 37  1  0  0  0  0
 25 26  1  0  0  0  0
 25 38  1  0  0  0  0
 26 27  1  0  0  0  0
 26 39  1  0  0  0  0
 27 28  1  1  0  0  0
 27 40  1  0  0  0  0
 28 43  1  0  0  0  0
 28 44  1  0  0  0  0
M  END
> <PUBCHEM_COMPOUND_CID>
91075216

> <PUBCHEM_COMPOUND_CANONICALIZED>
1

> <PUBCHEM_CACTVS_COMPLEXITY>
627

> <PUBCHEM_CACTVS_HBOND_ACCEPTOR>
13

> <PUBCHEM_CACTVS_HBOND_DONOR>
8

> <PUBCHEM_CACTVS_ROTATABLE_BOND>
3

> <PUBCHEM_CACTVS_SUBSKEYS>
AAADceBwPAAAAAAAAAAAAAAAAAAAAAAAAAAkSAAABgAAAEgAAAAAGgAACAAADFSwgAMACAAABgAIAIAQAAIAAAAAAAAAAAFAAAAREBYAAAQiQAAFIAAHAAHL7vzuAAAAAAAAAAAAAAAAAAAAAAAAAAAAAA==

> <PUBCHEM_IUPAC_OPENEYE_NAME>
(1S,6S,9R,10R)-4,8,9,10-tetrahydroxy-1-[(3R,4S,5S,6R)-3,4,5-trihydroxy-6-(hydroxymethyl)tetrahydropyran-2-yl]oxy-7-oxabicyclo[4.3.1]decane-2,5-dione

> <PUBCHEM_IUPAC_CAS_NAME>
(1S,6S,9R,10R)-4,8,9,10-tetrahydroxy-1-[[(3R,4S,5S,6R)-3,4,5-trihydroxy-6-(hydroxymethyl)-2-oxanyl]oxy]-7-oxabicyclo[4.3.1]decane-2,5-dione

> <PUBCHEM_IUPAC_NAME_MARKUP>
(1<I>S</I>,6<I>S</I>,9<I>R</I>,10<I>R</I>)-4,8,9,10-tetrahydroxy-1-[(3<I>R</I>,4<I>S</I>,5<I>S</I>,6<I>R</I>)-3,4,5-trihydroxy-6-(hydroxymethyl)oxan-2-yl]oxy-7-oxabicyclo[4.3.1]decane-2,5-dione

> <PUBCHEM_IUPAC_NAME>
(1S,6S,9R,10R)-4,8,9,10-tetrahydroxy-1-[(3R,4S,5S,6R)-3,4,5-trihydroxy-6-(hydroxymethyl)oxan-2-yl]oxy-7-oxabicyclo[4.3.1]decane-2,5-dione

> <PUBCHEM_IUPAC_SYSTEMATIC_NAME>
(1S,6S,9R,10R)-1-[(3R,4S,5S,6R)-6-(hydroxymethyl)-3,4,5-tris(oxidanyl)oxan-2-yl]oxy-4,8,9,10-tetrakis(oxidanyl)-7-oxabicyclo[4.3.1]decane-2,5-dione

> <PUBCHEM_IUPAC_TRADITIONAL_NAME>
(1S,6S,9R,10R)-4,8,9,10-tetrahydroxy-1-[(3R,4S,5S,6R)-3,4,5-trihydroxy-6-methylol-tetrahydropyran-2-yl]oxy-7-oxabicyclo[4.3.1]decane-2,5-quinone

> <PUBCHEM_IUPAC_INCHI>
InChI=1S/C15H22O13/c16-2-4-7(20)8(21)9(22)14(26-4)28-15-5(18)1-3(17)6(19)10(11(15)23)27-13(25)12(15)24/h3-4,7-14,16-17,20-25H,1-2H2/t3?,4-,7-,8+,9-,10-,11-,12+,13?,14?,15+/m1/s1

> <PUBCHEM_IUPAC_INCHIKEY>
MDFQGGJWEIELFX-KKNLUNAKSA-N

> <PUBCHEM_XLOGP3_AA>
-5.5

> <PUBCHEM_EXACT_MASS>
410.10604075

> <PUBCHEM_MOLECULAR_FORMULA>
C15H22O13

> <PUBCHEM_MOLECULAR_WEIGHT>
410.33

> <PUBCHEM_OPENEYE_CAN_SMILES>
C1C(C(=O)C2C(C(C1=O)(C(C(O2)O)O)OC3C(C(C(C(O3)CO)O)O)O)O)O

> <PUBCHEM_OPENEYE_ISO_SMILES>
C1C(C(=O)[C@@H]2[C@H]([C@@](C1=O)([C@H](C(O2)O)O)OC3[C@@H]([C@H]([C@@H]([C@H](O3)CO)O)O)O)O)O

> <PUBCHEM_CACTVS_TPSA>
224

> <PUBCHEM_MONOISOTOPIC_WEIGHT>
410.10604075

> <PUBCHEM_TOTAL_CHARGE>
0

> <PUBCHEM_HEAVY_ATOM_COUNT>
28

> <PUBCHEM_ATOM_DEF_STEREO_COUNT>
8

> <PUBCHEM_ATOM_UDEF_STEREO_COUNT>
3

> <PUBCHEM_BOND_DEF_STEREO_COUNT>
0

> <PUBCHEM_BOND_UDEF_STEREO_COUNT>
0

> <PUBCHEM_ISOTOPIC_ATOM_COUNT>
0

> <PUBCHEM_COMPONENT_COUNT>
1

> <PUBCHEM_CACTVS_TAUTO_COUNT>
-1

> <PUBCHEM_COORDINATE_TYPE>
1
5
255

> <PUBCHEM_BONDANNOTATIONS>
14  1  6
20  1  3
25  10  5
26  11  6
17  31  6
27  28  5
15  4  5
16  5  5
19  6  3
21  8  6
24  9  3

$$$$
