 
  -OEChem-10192104042D

 70 77  0     1  0  0  0  0  0999 V2000
    6.6461   -2.4206    0.0000 O   0  0  0  0  0  0  0  0  0  0  0  0
    7.5547    0.9702    0.0000 O   0  0  0  0  0  0  0  0  0  0  0  0
   13.3491    0.2902    0.0000 O   0  0  0  0  0  0  0  0  0  0  0  0
   14.5738   -0.9345    0.0000 O   0  0  0  0  0  0  0  0  0  0  0  0
   12.8314    2.2221    0.0000 O   0  0  0  0  0  0  0  0  0  0  0  0
   17.8505    3.5669    0.0000 O   0  5  0  0  0  0  0  0  0  0  0  0
   17.4022    1.8939    0.0000 O   0  0  0  0  0  0  0  0  0  0  0  0
    7.3640   -0.7958    0.0000 N   0  0  0  0  0  0  0  0  0  0  0  0
   11.4866   -2.7970    0.0000 N   0  0  0  0  0  0  0  0  0  0  0  0
   17.1434    2.8598    0.0000 N   0  3  0  0  0  0  0  0  0  0  0  0
    2.9853   -0.9661    0.0000 C   0  0  3  0  0  0  0  0  0  0  0  0
    2.6433   -0.0264    0.0000 C   0  0  3  0  0  0  0  0  0  0  0  0
    2.0000   -0.7926    0.0000 C   0  0  0  0  0  0  0  0  0  0  0  0
    4.3580   -0.3740    0.0000 C   0  0  3  0  0  0  0  0  0  0  0  0
    4.6168    0.5919    0.0000 C   0  0  3  0  0  0  0  0  0  0  0  0
    5.7569   -0.8829    0.0000 C   0  0  3  0  0  0  0  0  0  0  0  0
    6.0158    0.0831    0.0000 C   0  0  3  0  0  0  0  0  0  0  0  0
    3.3802    1.4405    0.0000 C   0  0  0  0  0  0  0  0  0  0  0  0
    4.2462    1.9405    0.0000 C   0  0  0  0  0  0  0  0  0  0  0  0
    6.5920   -1.4221    0.0000 C   0  0  0  0  0  0  0  0  0  0  0  0
    7.0086    0.1325    0.0000 C   0  0  0  0  0  0  0  0  0  0  0  0
    8.3300   -1.0547    0.0000 C   0  0  0  0  0  0  0  0  0  0  0  0
    8.5888   -2.0206    0.0000 C   0  0  0  0  0  0  0  0  0  0  0  0
    9.0371   -0.3476    0.0000 C   0  0  0  0  0  0  0  0  0  0  0  0
    9.5547   -2.2794    0.0000 C   0  0  0  0  0  0  0  0  0  0  0  0
   10.0030   -0.6064    0.0000 C   0  0  0  0  0  0  0  0  0  0  0  0
   10.2618   -1.5723    0.0000 C   0  0  0  0  0  0  0  0  0  0  0  0
   11.2277   -1.8311    0.0000 C   0  0  0  0  0  0  0  0  0  0  0  0
   11.9349   -1.1240    0.0000 C   0  0  0  0  0  0  0  0  0  0  0  0
   12.9008   -1.3828    0.0000 C   0  0  0  0  0  0  0  0  0  0  0  0
   12.4525   -3.0559    0.0000 C   0  0  0  0  0  0  0  0  0  0  0  0
   13.1596   -2.3488    0.0000 C   0  0  0  0  0  0  0  0  0  0  0  0
   12.7065   -4.0660    0.0000 C   0  0  0  0  0  0  0  0  0  0  0  0
   13.6079   -0.6757    0.0000 C   0  0  0  0  0  0  0  0  0  0  0  0
   14.1698   -2.6028    0.0000 C   0  0  0  0  0  0  0  0  0  0  0  0
   13.7106   -4.3434    0.0000 C   0  0  0  0  0  0  0  0  0  0  0  0
   14.4471   -3.6068    0.0000 C   0  0  0  0  0  0  0  0  0  0  0  0
   14.0562    0.9973    0.0000 C   0  0  0  0  0  0  0  0  0  0  0  0
   13.7974    1.9632    0.0000 C   0  0  0  0  0  0  0  0  0  0  0  0
   14.5045    2.6703    0.0000 C   0  0  0  0  0  0  0  0  0  0  0  0
   15.4704    2.4115    0.0000 C   0  0  0  0  0  0  0  0  0  0  0  0
   14.2456    3.6363    0.0000 C   0  0  0  0  0  0  0  0  0  0  0  0
   16.1775    3.1186    0.0000 C   0  0  0  0  0  0  0  0  0  0  0  0
   14.9527    4.3434    0.0000 C   0  0  0  0  0  0  0  0  0  0  0  0
   15.9187    4.0846    0.0000 C   0  0  0  0  0  0  0  0  0  0  0  0
    3.0573   -1.5819    0.0000 H   0  0  0  0  0  0  0  0  0  0  0  0
    2.2994    0.4895    0.0000 H   0  0  0  0  0  0  0  0  0  0  0  0
    1.4631   -0.4825    0.0000 H   0  0  0  0  0  0  0  0  0  0  0  0
    1.7880   -1.3752    0.0000 H   0  0  0  0  0  0  0  0  0  0  0  0
    4.7634    0.0951    0.0000 H   0  0  0  0  0  0  0  0  0  0  0  0
    5.0725    1.0123    0.0000 H   0  0  0  0  0  0  0  0  0  0  0  0
    5.4811   -1.4381    0.0000 H   0  0  0  0  0  0  0  0  0  0  0  0
    6.1081    0.6962    0.0000 H   0  0  0  0  0  0  0  0  0  0  0  0
    2.7837    1.6098    0.0000 H   0  0  0  0  0  0  0  0  0  0  0  0
    4.4817    2.5141    0.0000 H   0  0  0  0  0  0  0  0  0  0  0  0
    8.1504   -2.4590    0.0000 H   0  0  0  0  0  0  0  0  0  0  0  0
    8.8766    0.2513    0.0000 H   0  0  0  0  0  0  0  0  0  0  0  0
    9.7152   -2.8783    0.0000 H   0  0  0  0  0  0  0  0  0  0  0  0
   10.4414   -0.1680    0.0000 H   0  0  0  0  0  0  0  0  0  0  0  0
   11.7744   -0.5251    0.0000 H   0  0  0  0  0  0  0  0  0  0  0  0
   12.2631   -4.4993    0.0000 H   0  0  0  0  0  0  0  0  0  0  0  0
   14.6031   -2.1594    0.0000 H   0  0  0  0  0  0  0  0  0  0  0  0
   13.8687   -4.9429    0.0000 H   0  0  0  0  0  0  0  0  0  0  0  0
   15.0466   -3.7650    0.0000 H   0  0  0  0  0  0  0  0  0  0  0  0
   14.4118    0.4894    0.0000 H   0  0  0  0  0  0  0  0  0  0  0  0
   14.6181    1.2593    0.0000 H   0  0  0  0  0  0  0  0  0  0  0  0
   15.6309    1.8126    0.0000 H   0  0  0  0  0  0  0  0  0  0  0  0
   13.6468    3.7967    0.0000 H   0  0  0  0  0  0  0  0  0  0  0  0
   14.7923    4.9422    0.0000 H   0  0  0  0  0  0  0  0  0  0  0  0
   16.3571    4.5230    0.0000 H   0  0  0  0  0  0  0  0  0  0  0  0
  1 20  2  0  0  0  0
  2 21  2  0  0  0  0
  3 34  1  0  0  0  0
  3 38  1  0  0  0  0
  4 34  2  0  0  0  0
  5 39  2  0  0  0  0
  6 10  1  0  0  0  0
  7 10  2  0  0  0  0
  8 20  1  0  0  0  0
  8 21  1  0  0  0  0
  8 22  1  0  0  0  0
  9 28  2  0  0  0  0
  9 31  1  0  0  0  0
 10 43  1  0  0  0  0
 11 12  1  0  0  0  0
 11 13  1  0  0  0  0
 11 14  1  0  0  0  0
 11 46  1  0  0  0  0
 12 13  1  0  0  0  0
 12 15  1  0  0  0  0
 12 47  1  0  0  0  0
 13 48  1  0  0  0  0
 13 49  1  0  0  0  0
 14 16  1  0  0  0  0
 14 18  1  0  0  0  0
 14 50  1  0  0  0  0
 15 17  1  0  0  0  0
 15 19  1  0  0  0  0
 15 51  1  0  0  0  0
 16 17  1  0  0  0  0
 16 20  1  0  0  0  0
 16 52  1  0  0  0  0
 17 21  1  0  0  0  0
 17 53  1  0  0  0  0
 18 19  2  0  0  0  0
 18 54  1  0  0  0  0
 19 55  1  0  0  0  0
 22 23  2  0  0  0  0
 22 24  1  0  0  0  0
 23 25  1  0  0  0  0
 23 56  1  0  0  0  0
 24 26  2  0  0  0  0
 24 57  1  0  0  0  0
 25 27  2  0  0  0  0
 25 58  1  0  0  0  0
 26 27  1  0  0  0  0
 26 59  1  0  0  0  0
 27 28  1  0  0  0  0
 28 29  1  0  0  0  0
 29 30  2  0  0  0  0
 29 60  1  0  0  0  0
 30 32  1  0  0  0  0
 30 34  1  0  0  0  0
 31 32  1  0  0  0  0
 31 33  2  0  0  0  0
 32 35  2  0  0  0  0
 33 36  1  0  0  0  0
 33 61  1  0  0  0  0
 35 37  1  0  0  0  0
 35 62  1  0  0  0  0
 36 37  2  0  0  0  0
 36 63  1  0  0  0  0
 37 64  1  0  0  0  0
 38 39  1  0  0  0  0
 38 65  1  0  0  0  0
 38 66  1  0  0  0  0
 39 40  1  0  0  0  0
 40 41  2  0  0  0  0
 40 42  1  0  0  0  0
 41 43  1  0  0  0  0
 41 67  1  0  0  0  0
 42 44  2  0  0  0  0
 42 68  1  0  0  0  0
 43 45  2  0  0  0  0
 44 45  1  0  0  0  0
 44 69  1  0  0  0  0
 45 70  1  0  0  0  0
M  CHG  2   6  -1  10   1
M  END
> <PUBCHEM_COMPOUND_CID>
3389410

> <PUBCHEM_COMPOUND_CANONICALIZED>
1

> <PUBCHEM_CACTVS_COMPLEXITY>
1250

> <PUBCHEM_CACTVS_HBOND_ACCEPTOR>
8

> <PUBCHEM_CACTVS_HBOND_DONOR>
0

> <PUBCHEM_CACTVS_ROTATABLE_BOND>
7

> <PUBCHEM_CACTVS_SUBSKEYS>
AAADceB/OAAAAAAAAAAAAAAAGAAAAWAAAAA8YMGCBgAAAECx9AAAHgAEAAAADQyhngIwyPMYVACpA6XyXwKCgCAlAiAomCFwbNoIJvLAtZ2GMQhkxCHI6Ye92PGOiAAAQAACAACQAASAACQAAAAAAAAAAA==

> <PUBCHEM_IUPAC_OPENEYE_NAME>
[2-(3-nitrophenyl)-2-oxo-ethyl] 2-[4-(3,5-dioxo-4-azatetracyclo[5.3.2.02,6.08,10]dodec-11-en-4-yl)phenyl]quinoline-4-carboxylate

> <PUBCHEM_IUPAC_CAS_NAME>
2-[4-(3,5-dioxo-4-azatetracyclo[5.3.2.02,6.08,10]dodec-11-en-4-yl)phenyl]-4-quinolinecarboxylic acid [2-(3-nitrophenyl)-2-oxoethyl] ester

> <PUBCHEM_IUPAC_NAME_MARKUP>
[2-(3-nitrophenyl)-2-oxoethyl] 2-[4-(3,5-dioxo-4-azatetracyclo[5.3.2.0<SUP>2,6</SUP>.0<SUP>8,10</SUP>]dodec-11-en-4-yl)phenyl]quinoline-4-carboxylate

> <PUBCHEM_IUPAC_NAME>
[2-(3-nitrophenyl)-2-oxoethyl] 2-[4-(3,5-dioxo-4-azatetracyclo[5.3.2.02,6.08,10]dodec-11-en-4-yl)phenyl]quinoline-4-carboxylate

> <PUBCHEM_IUPAC_SYSTEMATIC_NAME>
[2-(3-nitrophenyl)-2-oxidanylidene-ethyl] 2-[4-[3,5-bis(oxidanylidene)-4-azatetracyclo[5.3.2.02,6.08,10]dodec-11-en-4-yl]phenyl]quinoline-4-carboxylate

> <PUBCHEM_IUPAC_TRADITIONAL_NAME>
2-[4-(3,5-diketo-4-azatetracyclo[5.3.2.02,6.08,10]dodec-11-en-4-yl)phenyl]cinchoninic acid [2-keto-2-(3-nitrophenyl)ethyl] ester

> <PUBCHEM_IUPAC_INCHI>
InChI=1S/C35H25N3O7/c39-30(19-4-3-5-21(14-19)38(43)44)17-45-35(42)27-16-29(36-28-7-2-1-6-22(27)28)18-8-10-20(11-9-18)37-33(40)31-23-12-13-24(26-15-25(23)26)32(31)34(37)41/h1-14,16,23-26,31-32H,15,17H2

> <PUBCHEM_IUPAC_INCHIKEY>
MHKNNVCFVOZNCC-UHFFFAOYSA-N

> <PUBCHEM_XLOGP3_AA>
5.1

> <PUBCHEM_EXACT_MASS>
599.16925015

> <PUBCHEM_MOLECULAR_FORMULA>
C35H25N3O7

> <PUBCHEM_MOLECULAR_WEIGHT>
599.6

> <PUBCHEM_OPENEYE_CAN_SMILES>
C1C2C1C3C=CC2C4C3C(=O)N(C4=O)C5=CC=C(C=C5)C6=NC7=CC=CC=C7C(=C6)C(=O)OCC(=O)C8=CC(=CC=C8)[N+](=O)[O-]

> <PUBCHEM_OPENEYE_ISO_SMILES>
C1C2C1C3C=CC2C4C3C(=O)N(C4=O)C5=CC=C(C=C5)C6=NC7=CC=CC=C7C(=C6)C(=O)OCC(=O)C8=CC(=CC=C8)[N+](=O)[O-]

> <PUBCHEM_CACTVS_TPSA>
140

> <PUBCHEM_MONOISOTOPIC_WEIGHT>
599.16925015

> <PUBCHEM_TOTAL_CHARGE>
0

> <PUBCHEM_HEAVY_ATOM_COUNT>
45

> <PUBCHEM_ATOM_DEF_STEREO_COUNT>
0

> <PUBCHEM_ATOM_UDEF_STEREO_COUNT>
6

> <PUBCHEM_BOND_DEF_STEREO_COUNT>
0

> <PUBCHEM_BOND_UDEF_STEREO_COUNT>
0

> <PUBCHEM_ISOTOPIC_ATOM_COUNT>
0

> <PUBCHEM_COMPONENT_COUNT>
1

> <PUBCHEM_CACTVS_TAUTO_COUNT>
-1

> <PUBCHEM_COORDINATE_TYPE>
1
5
255

> <PUBCHEM_BONDANNOTATIONS>
11  13  3
12  13  3
14  18  3
15  19  3
16  20  3
17  21  3
22  23  8
22  24  8
23  25  8
24  26  8
25  27  8
26  27  8
28  29  8
29  30  8
30  32  8
31  32  8
31  33  8
32  35  8
33  36  8
35  37  8
36  37  8
40  41  8
40  42  8
41  43  8
42  44  8
43  45  8
44  45  8
9  28  8
9  31  8

$$$$
