 
  -OEChem-10192104382D

 62 65  0     1  0  0  0  0  0999 V2000
   10.9033    0.2861    0.0000 O   0  0  0  0  0  0  0  0  0  0  0  0
   10.2484    2.9678    0.0000 O   0  0  0  0  0  0  0  0  0  0  0  0
    7.1621    0.7225    0.0000 O   0  0  0  0  0  0  0  0  0  0  0  0
    8.0622   -0.8018    0.0000 O   0  0  0  0  0  0  0  0  0  0  0  0
    9.7087   -1.3179    0.0000 O   0  0  0  0  0  0  0  0  0  0  0  0
    6.3301   -0.8018    0.0000 O   0  0  0  0  0  0  0  0  0  0  0  0
   11.8893    2.4136    0.0000 O   0  0  0  0  0  0  0  0  0  0  0  0
    8.0622   -2.8018    0.0000 O   0  0  0  0  0  0  0  0  0  0  0  0
    6.3301   -3.8018    0.0000 O   0  0  0  0  0  0  0  0  0  0  0  0
   11.2991   -0.6317    0.0000 O   0  0  0  0  0  0  0  0  0  0  0  0
    4.5981   -2.8018    0.0000 O   0  0  0  0  0  0  0  0  0  0  0  0
    3.7320   -1.3018    0.0000 O   0  0  0  0  0  0  0  0  0  0  0  0
    2.8660    0.1982    0.0000 O   0  0  0  0  0  0  0  0  0  0  0  0
    9.9097    0.4025    0.0000 C   0  0  1  0  0  0  0  0  0  0  0  0
   10.5068    1.2046    0.0000 C   0  0  2  0  0  0  0  0  0  0  0  0
    8.9622    0.7225    0.0000 C   0  0  2  0  0  0  0  0  0  0  0  0
    8.9738    1.7224    0.0000 C   0  0  2  0  0  0  0  0  0  0  0  0
    9.9284    2.0204    0.0000 C   0  0  1  0  0  0  0  0  0  0  0  0
    9.3126   -0.3997    0.0000 C   0  0  0  0  0  0  0  0  0  0  0  0
    8.0622    0.1982    0.0000 C   0  0  1  0  0  0  0  0  0  0  0  0
    8.0861    2.2674    0.0000 C   0  0  0  0  0  0  0  0  0  0  0  0
    7.1742    1.7640    0.0000 C   0  0  0  0  0  0  0  0  0  0  0  0
    7.1962   -1.3018    0.0000 C   0  0  2  0  0  0  0  0  0  0  0  0
   11.2289    3.1644    0.0000 C   0  0  0  0  0  0  0  0  0  0  0  0
    7.1962   -2.3018    0.0000 C   0  0  1  0  0  0  0  0  0  0  0  0
   10.7020   -1.4339    0.0000 C   0  0  0  0  0  0  0  0  0  0  0  0
    6.3301   -2.8018    0.0000 C   0  0  2  0  0  0  0  0  0  0  0  0
    5.4641   -1.3018    0.0000 C   0  0  1  0  0  0  0  0  0  0  0  0
    5.4641   -2.3018    0.0000 C   0  0  1  0  0  0  0  0  0  0  0  0
   11.5488    4.1118    0.0000 C   0  0  0  0  0  0  0  0  0  0  0  0
   11.0981   -2.3521    0.0000 C   0  0  0  0  0  0  0  0  0  0  0  0
    4.5981   -0.8018    0.0000 C   0  0  0  0  0  0  0  0  0  0  0  0
    2.8660   -0.8018    0.0000 C   0  0  0  0  0  0  0  0  0  0  0  0
    2.0000   -1.3018    0.0000 C   0  0  0  0  0  0  0  0  0  0  0  0
   11.2477    1.6212    0.0000 H   0  0  0  0  0  0  0  0  0  0  0  0
    9.0478   -0.1232    0.0000 H   0  0  0  0  0  0  0  0  0  0  0  0
    9.0789    2.5659    0.0000 H   0  0  0  0  0  0  0  0  0  0  0  0
   10.5418    2.1103    0.0000 H   0  0  0  0  0  0  0  0  0  0  0  0
    8.8871    0.0512    0.0000 H   0  0  0  0  0  0  0  0  0  0  0  0
    8.7946   -0.7404    0.0000 H   0  0  0  0  0  0  0  0  0  0  0  0
    8.5997   -0.1108    0.0000 H   0  0  0  0  0  0  0  0  0  0  0  0
    8.1004    2.8872    0.0000 H   0  0  0  0  0  0  0  0  0  0  0  0
    6.6421    2.0823    0.0000 H   0  0  0  0  0  0  0  0  0  0  0  0
    7.7331   -1.6118    0.0000 H   0  0  0  0  0  0  0  0  0  0  0  0
    7.1962   -2.9218    0.0000 H   0  0  0  0  0  0  0  0  0  0  0  0
    5.7932   -3.1118    0.0000 H   0  0  0  0  0  0  0  0  0  0  0  0
    5.4641   -0.6818    0.0000 H   0  0  0  0  0  0  0  0  0  0  0  0
    5.4641   -2.9218    0.0000 H   0  0  0  0  0  0  0  0  0  0  0  0
   12.1362    3.9134    0.0000 H   0  0  0  0  0  0  0  0  0  0  0  0
   11.7472    4.6992    0.0000 H   0  0  0  0  0  0  0  0  0  0  0  0
   10.9614    4.3102    0.0000 H   0  0  0  0  0  0  0  0  0  0  0  0
   10.5288   -2.5977    0.0000 H   0  0  0  0  0  0  0  0  0  0  0  0
   11.3437   -2.9214    0.0000 H   0  0  0  0  0  0  0  0  0  0  0  0
   11.6674   -2.1065    0.0000 H   0  0  0  0  0  0  0  0  0  0  0  0
    4.9966   -0.3269    0.0000 H   0  0  0  0  0  0  0  0  0  0  0  0
    4.1996   -0.3269    0.0000 H   0  0  0  0  0  0  0  0  0  0  0  0
    8.0622   -3.4218    0.0000 H   0  0  0  0  0  0  0  0  0  0  0  0
    5.7932   -4.1118    0.0000 H   0  0  0  0  0  0  0  0  0  0  0  0
    4.5981   -3.4218    0.0000 H   0  0  0  0  0  0  0  0  0  0  0  0
    1.6900   -0.7649    0.0000 H   0  0  0  0  0  0  0  0  0  0  0  0
    1.4631   -1.6118    0.0000 H   0  0  0  0  0  0  0  0  0  0  0  0
    2.3100   -1.8388    0.0000 H   0  0  0  0  0  0  0  0  0  0  0  0
  1 14  1  0  0  0  0
  1 15  1  0  0  0  0
 18  2  1  1  0  0  0
  2 24  1  0  0  0  0
  3 20  1  0  0  0  0
  3 22  1  0  0  0  0
 20  4  1  6  0  0  0
 23  4  1  1  0  0  0
  5 19  1  0  0  0  0
  5 26  1  0  0  0  0
  6 23  1  0  0  0  0
  6 28  1  0  0  0  0
  7 24  2  0  0  0  0
 25  8  1  6  0  0  0
  8 57  1  0  0  0  0
 27  9  1  1  0  0  0
  9 58  1  0  0  0  0
 10 26  2  0  0  0  0
 29 11  1  6  0  0  0
 11 59  1  0  0  0  0
 12 32  1  0  0  0  0
 12 33  1  0  0  0  0
 13 33  2  0  0  0  0
 14 15  1  0  0  0  0
 14 16  1  0  0  0  0
 14 19  1  1  0  0  0
 15 18  1  0  0  0  0
 15 35  1  1  0  0  0
 16 17  1  0  0  0  0
 16 20  1  0  0  0  0
 16 36  1  6  0  0  0
 17 18  1  0  0  0  0
 17 21  1  0  0  0  0
 17 37  1  6  0  0  0
 18 38  1  0  0  0  0
 19 39  1  0  0  0  0
 19 40  1  0  0  0  0
 20 41  1  0  0  0  0
 21 22  2  0  0  0  0
 21 42  1  0  0  0  0
 22 43  1  0  0  0  0
 23 25  1  0  0  0  0
 23 44  1  0  0  0  0
 24 30  1  0  0  0  0
 25 27  1  0  0  0  0
 25 45  1  0  0  0  0
 26 31  1  0  0  0  0
 27 29  1  0  0  0  0
 27 46  1  0  0  0  0
 28 29  1  0  0  0  0
 28 32  1  1  0  0  0
 28 47  1  0  0  0  0
 29 48  1  0  0  0  0
 30 49  1  0  0  0  0
 30 50  1  0  0  0  0
 30 51  1  0  0  0  0
 31 52  1  0  0  0  0
 31 53  1  0  0  0  0
 31 54  1  0  0  0  0
 32 55  1  0  0  0  0
 32 56  1  0  0  0  0
 33 34  1  0  0  0  0
 34 60  1  0  0  0  0
 34 61  1  0  0  0  0
 34 62  1  0  0  0  0
M  END
> <PUBCHEM_COMPOUND_CID>
118726327

> <PUBCHEM_COMPOUND_CANONICALIZED>
1

> <PUBCHEM_CACTVS_COMPLEXITY>
845

> <PUBCHEM_CACTVS_HBOND_ACCEPTOR>
13

> <PUBCHEM_CACTVS_HBOND_DONOR>
3

> <PUBCHEM_CACTVS_ROTATABLE_BOND>
10

> <PUBCHEM_CACTVS_SUBSKEYS>
AAADceB4PAAAAAAAAAAAAAAAEgAAAYAAAAAkSIAAAAAAAEAAAAAAGgAACAAADVSwgAMCCAAABgCIACDSCAAACAAgIAAIAAAAAAgREAIAAQAiQAAFwAAHAAHA4DwOgAAAAAAAAAAAAAAAAAAAAYQADCAAAA==

> <PUBCHEM_IUPAC_OPENEYE_NAME>
[(2R,3S,4S,5R,6S)-6-[[(1S,2S,4S,5R,6R,10S)-5-acetoxy-2-(acetoxymethyl)-3,9-dioxatricyclo[4.4.0.02,4]dec-7-en-10-yl]oxy]-3,4,5-trihydroxy-tetrahydropyran-2-yl]methyl acetate

> <PUBCHEM_IUPAC_CAS_NAME>
acetic acid [(2R,3S,4S,5R,6S)-6-[[(1S,2S,4S,5R,6R,10S)-5-acetyloxy-2-(acetyloxymethyl)-3,9-dioxatricyclo[4.4.0.02,4]dec-7-en-10-yl]oxy]-3,4,5-trihydroxy-2-oxanyl]methyl ester

> <PUBCHEM_IUPAC_NAME_MARKUP>
[(2<I>R</I>,3<I>S</I>,4<I>S</I>,5<I>R</I>,6<I>S</I>)-6-[[(1<I>S</I>,2<I>S</I>,4<I>S</I>,5<I>R</I>,6<I>R</I>,10<I>S</I>)-5-acetyloxy-2-(acetyloxymethyl)-3,9-dioxatricyclo[4.4.0.0<SUP>2,4</SUP>]dec-7-en-10-yl]oxy]-3,4,5-trihydroxyoxan-2-yl]methyl acetate

> <PUBCHEM_IUPAC_NAME>
[(2R,3S,4S,5R,6S)-6-[[(1S,2S,4S,5R,6R,10S)-5-acetyloxy-2-(acetyloxymethyl)-3,9-dioxatricyclo[4.4.0.02,4]dec-7-en-10-yl]oxy]-3,4,5-trihydroxyoxan-2-yl]methyl acetate

> <PUBCHEM_IUPAC_SYSTEMATIC_NAME>
[(2R,3S,4S,5R,6S)-6-[[(1S,2S,4S,5R,6R,10S)-5-acetyloxy-2-(acetyloxymethyl)-3,9-dioxatricyclo[4.4.0.02,4]dec-7-en-10-yl]oxy]-3,4,5-tris(oxidanyl)oxan-2-yl]methyl ethanoate

> <PUBCHEM_IUPAC_TRADITIONAL_NAME>
acetic acid [(2R,3S,4S,5R,6S)-6-[[(1S,2S,4S,5R,6R,10S)-5-acetoxy-2-(acetoxymethyl)-3,9-dioxatricyclo[4.4.0.02,4]dec-7-en-10-yl]oxy]-3,4,5-trihydroxy-tetrahydropyran-2-yl]methyl ester

> <PUBCHEM_IUPAC_INCHI>
InChI=1S/C21H28O13/c1-8(22)29-6-12-14(25)15(26)16(27)20(32-12)33-19-13-11(4-5-28-19)17(31-10(3)24)18-21(13,34-18)7-30-9(2)23/h4-5,11-20,25-27H,6-7H2,1-3H3/t11-,12-,13-,14-,15+,16-,17-,18+,19+,20+,21-/m1/s1

> <PUBCHEM_IUPAC_INCHIKEY>
PSBFAQGWOQTGKL-QNMSNNRMSA-N

> <PUBCHEM_XLOGP3_AA>
-2

> <PUBCHEM_EXACT_MASS>
488.15299094

> <PUBCHEM_MOLECULAR_FORMULA>
C21H28O13

> <PUBCHEM_MOLECULAR_WEIGHT>
488.4

> <PUBCHEM_OPENEYE_CAN_SMILES>
CC(=O)OCC1C(C(C(C(O1)OC2C3C(C=CO2)C(C4C3(O4)COC(=O)C)OC(=O)C)O)O)O

> <PUBCHEM_OPENEYE_ISO_SMILES>
CC(=O)OC[C@@H]1[C@H]([C@@H]([C@H]([C@@H](O1)O[C@H]2[C@H]3[C@@H](C=CO2)[C@H]([C@H]4[C@@]3(O4)COC(=O)C)OC(=O)C)O)O)O

> <PUBCHEM_CACTVS_TPSA>
180

> <PUBCHEM_MONOISOTOPIC_WEIGHT>
488.15299094

> <PUBCHEM_TOTAL_CHARGE>
0

> <PUBCHEM_HEAVY_ATOM_COUNT>
34

> <PUBCHEM_ATOM_DEF_STEREO_COUNT>
11

> <PUBCHEM_ATOM_UDEF_STEREO_COUNT>
0

> <PUBCHEM_BOND_DEF_STEREO_COUNT>
0

> <PUBCHEM_BOND_UDEF_STEREO_COUNT>
0

> <PUBCHEM_ISOTOPIC_ATOM_COUNT>
0

> <PUBCHEM_COMPONENT_COUNT>
1

> <PUBCHEM_CACTVS_TAUTO_COUNT>
-1

> <PUBCHEM_COORDINATE_TYPE>
1
5
255

> <PUBCHEM_BONDANNOTATIONS>
29  11  6
14  19  5
15  35  5
16  36  6
17  37  6
18  2  5
28  32  5
20  4  6
23  4  5
25  8  6
27  9  5

$$$$
