 
  -OEChem-10192104212D

 46 47  0     0  0  0  0  0  0999 V2000
    4.3100   -3.5950    0.0000 P   0  0  0  0  0  0  0  0  0  0  0  0
    3.3100   -2.5950    0.0000 P   0  0  0  0  0  0  0  0  0  0  0  0
    5.3100   -2.5950    0.0000 O   0  0  0  0  0  0  0  0  0  0  0  0
    4.3100   -4.5950    0.0000 O   0  0  0  0  0  0  0  0  0  0  0  0
    5.3100   -3.5950    0.0000 O   0  0  0  0  0  0  0  0  0  0  0  0
    2.3100   -2.5950    0.0000 O   0  0  0  0  0  0  0  0  0  0  0  0
    3.3100   -1.5950    0.0000 O   0  0  0  0  0  0  0  0  0  0  0  0
    3.5439   -4.2377    0.0000 O   0  0  0  0  0  0  0  0  0  0  0  0
    2.6673   -3.3611    0.0000 O   0  0  0  0  0  0  0  0  0  0  0  0
    5.1760   -0.0950    0.0000 N   0  0  0  0  0  0  0  0  0  0  0  0
    4.3100    3.4050    0.0000 N   0  0  0  0  0  0  0  0  0  0  0  0
    5.1760    1.9050    0.0000 C   0  0  0  0  0  0  0  0  0  0  0  0
    4.3100    1.4050    0.0000 C   0  0  0  0  0  0  0  0  0  0  0  0
    6.0420    1.4050    0.0000 C   0  0  0  0  0  0  0  0  0  0  0  0
    4.3100    0.4050    0.0000 C   0  0  0  0  0  0  0  0  0  0  0  0
    6.0420    0.4050    0.0000 C   0  0  0  0  0  0  0  0  0  0  0  0
    5.1760   -1.0950    0.0000 C   0  0  0  0  0  0  0  0  0  0  0  0
    4.3100   -1.5950    0.0000 C   0  0  0  0  0  0  0  0  0  0  0  0
    4.3100   -2.5950    0.0000 C   0  0  0  0  0  0  0  0  0  0  0  0
    5.1760    2.9050    0.0000 C   0  0  0  0  0  0  0  0  0  0  0  0
    6.0420    3.4050    0.0000 C   0  0  0  0  0  0  0  0  0  0  0  0
    6.0420    4.4050    0.0000 C   0  0  0  0  0  0  0  0  0  0  0  0
    4.3100    4.4050    0.0000 C   0  0  0  0  0  0  0  0  0  0  0  0
    5.1760    4.9050    0.0000 C   0  0  0  0  0  0  0  0  0  0  0  0
    5.7130    2.2150    0.0000 H   0  0  0  0  0  0  0  0  0  0  0  0
    4.0980    1.9876    0.0000 H   0  0  0  0  0  0  0  0  0  0  0  0
    3.6994    1.2973    0.0000 H   0  0  0  0  0  0  0  0  0  0  0  0
    6.6526    1.2973    0.0000 H   0  0  0  0  0  0  0  0  0  0  0  0
    6.2541    1.9876    0.0000 H   0  0  0  0  0  0  0  0  0  0  0  0
    3.6994    0.5127    0.0000 H   0  0  0  0  0  0  0  0  0  0  0  0
    4.0980   -0.1776    0.0000 H   0  0  0  0  0  0  0  0  0  0  0  0
    6.2541   -0.1776    0.0000 H   0  0  0  0  0  0  0  0  0  0  0  0
    6.6526    0.5127    0.0000 H   0  0  0  0  0  0  0  0  0  0  0  0
    5.3881   -1.6776    0.0000 H   0  0  0  0  0  0  0  0  0  0  0  0
    5.7866   -0.9873    0.0000 H   0  0  0  0  0  0  0  0  0  0  0  0
    4.0980   -1.0124    0.0000 H   0  0  0  0  0  0  0  0  0  0  0  0
    3.6994   -1.7027    0.0000 H   0  0  0  0  0  0  0  0  0  0  0  0
    5.6200   -2.0581    0.0000 H   0  0  0  0  0  0  0  0  0  0  0  0
    6.5790    3.0950    0.0000 H   0  0  0  0  0  0  0  0  0  0  0  0
    3.7731   -4.9050    0.0000 H   0  0  0  0  0  0  0  0  0  0  0  0
    5.6200   -4.1319    0.0000 H   0  0  0  0  0  0  0  0  0  0  0  0
    2.0000   -2.0581    0.0000 H   0  0  0  0  0  0  0  0  0  0  0  0
    2.7731   -1.2850    0.0000 H   0  0  0  0  0  0  0  0  0  0  0  0
    6.5790    4.7150    0.0000 H   0  0  0  0  0  0  0  0  0  0  0  0
    3.7731    4.7150    0.0000 H   0  0  0  0  0  0  0  0  0  0  0  0
    5.1760    5.5250    0.0000 H   0  0  0  0  0  0  0  0  0  0  0  0
  1  4  1  0  0  0  0
  1  5  1  0  0  0  0
  1  8  2  0  0  0  0
  1 19  1  0  0  0  0
  2  6  1  0  0  0  0
  2  7  1  0  0  0  0
  2  9  2  0  0  0  0
  2 19  1  0  0  0  0
  3 19  1  0  0  0  0
  3 38  1  0  0  0  0
  4 40  1  0  0  0  0
  5 41  1  0  0  0  0
  6 42  1  0  0  0  0
  7 43  1  0  0  0  0
 10 15  1  0  0  0  0
 10 16  1  0  0  0  0
 10 17  1  0  0  0  0
 11 20  1  0  0  0  0
 11 23  2  0  0  0  0
 12 13  1  0  0  0  0
 12 14  1  0  0  0  0
 12 20  1  0  0  0  0
 12 25  1  0  0  0  0
 13 15  1  0  0  0  0
 13 26  1  0  0  0  0
 13 27  1  0  0  0  0
 14 16  1  0  0  0  0
 14 28  1  0  0  0  0
 14 29  1  0  0  0  0
 15 30  1  0  0  0  0
 15 31  1  0  0  0  0
 16 32  1  0  0  0  0
 16 33  1  0  0  0  0
 17 18  1  0  0  0  0
 17 34  1  0  0  0  0
 17 35  1  0  0  0  0
 18 19  1  0  0  0  0
 18 36  1  0  0  0  0
 18 37  1  0  0  0  0
 20 21  2  0  0  0  0
 21 22  1  0  0  0  0
 21 39  1  0  0  0  0
 22 24  2  0  0  0  0
 22 44  1  0  0  0  0
 23 24  1  0  0  0  0
 23 45  1  0  0  0  0
 24 46  1  0  0  0  0
M  END
> <PUBCHEM_COMPOUND_CID>
19847332

> <PUBCHEM_COMPOUND_CANONICALIZED>
1

> <PUBCHEM_CACTVS_COMPLEXITY>
490

> <PUBCHEM_CACTVS_HBOND_ACCEPTOR>
9

> <PUBCHEM_CACTVS_HBOND_DONOR>
5

> <PUBCHEM_CACTVS_ROTATABLE_BOND>
6

> <PUBCHEM_CACTVS_SUBSKEYS>
AAADceBzOAMAAAAAAAAAAAAAAAAAAAAAAAAsWAAAAAAAAAABgAAAHggACCAADQjBlgQ8gJMIEhCgQTRnRICCgCAxAiAI2CA4ZJgIIOLAkZGEYAhigADIyAcQgMAOAAAAAAAAAAAAAAAAAAAAAAAAAAAAAA==

> <PUBCHEM_IUPAC_OPENEYE_NAME>
[1-hydroxy-1-phosphono-3-[4-(2-pyridyl)-1-piperidyl]propyl]phosphonic acid

> <PUBCHEM_IUPAC_CAS_NAME>
[1-hydroxy-1-phosphono-3-[4-(2-pyridinyl)-1-piperidinyl]propyl]phosphonic acid

> <PUBCHEM_IUPAC_NAME_MARKUP>
[1-hydroxy-1-phosphono-3-(4-pyridin-2-ylpiperidin-1-yl)propyl]phosphonic acid

> <PUBCHEM_IUPAC_NAME>
[1-hydroxy-1-phosphono-3-(4-pyridin-2-ylpiperidin-1-yl)propyl]phosphonic acid

> <PUBCHEM_IUPAC_SYSTEMATIC_NAME>
[1-oxidanyl-1-phosphono-3-(4-pyridin-2-ylpiperidin-1-yl)propyl]phosphonic acid

> <PUBCHEM_IUPAC_TRADITIONAL_NAME>
[1-hydroxy-1-phosphono-3-[4-(2-pyridyl)piperidino]propyl]phosphonic acid

> <PUBCHEM_IUPAC_INCHI>
InChI=1S/C13H22N2O7P2/c16-13(23(17,18)19,24(20,21)22)6-10-15-8-4-11(5-9-15)12-3-1-2-7-14-12/h1-3,7,11,16H,4-6,8-10H2,(H2,17,18,19)(H2,20,21,22)

> <PUBCHEM_IUPAC_INCHIKEY>
XADKLECWMBJENY-UHFFFAOYSA-N

> <PUBCHEM_XLOGP3_AA>
-4.7

> <PUBCHEM_EXACT_MASS>
380.09022504

> <PUBCHEM_MOLECULAR_FORMULA>
C13H22N2O7P2

> <PUBCHEM_MOLECULAR_WEIGHT>
380.27

> <PUBCHEM_OPENEYE_CAN_SMILES>
C1CN(CCC1C2=CC=CC=N2)CCC(O)(P(=O)(O)O)P(=O)(O)O

> <PUBCHEM_OPENEYE_ISO_SMILES>
C1CN(CCC1C2=CC=CC=N2)CCC(O)(P(=O)(O)O)P(=O)(O)O

> <PUBCHEM_CACTVS_TPSA>
151

> <PUBCHEM_MONOISOTOPIC_WEIGHT>
380.09022504

> <PUBCHEM_TOTAL_CHARGE>
0

> <PUBCHEM_HEAVY_ATOM_COUNT>
24

> <PUBCHEM_ATOM_DEF_STEREO_COUNT>
0

> <PUBCHEM_ATOM_UDEF_STEREO_COUNT>
0

> <PUBCHEM_BOND_DEF_STEREO_COUNT>
0

> <PUBCHEM_BOND_UDEF_STEREO_COUNT>
0

> <PUBCHEM_ISOTOPIC_ATOM_COUNT>
0

> <PUBCHEM_COMPONENT_COUNT>
1

> <PUBCHEM_CACTVS_TAUTO_COUNT>
-1

> <PUBCHEM_COORDINATE_TYPE>
1
5
255

> <PUBCHEM_BONDANNOTATIONS>
11  20  8
11  23  8
20  21  8
21  22  8
22  24  8
23  24  8

$$$$
