 
  -OEChem-10192103292D

 51 53  0     1  0  0  0  0  0999 V2000
    6.5659   -2.8217    0.0000 P   0  0  3  0  0  0  0  0  0  0  0  0
    8.4270   -0.3571    0.0000 O   0  0  0  0  0  0  0  0  0  0  0  0
   10.9960   -0.6661    0.0000 O   0  0  0  0  0  0  0  0  0  0  0  0
   10.3238   -2.1172    0.0000 O   0  0  0  0  0  0  0  0  0  0  0  0
    7.5604   -2.9262    0.0000 O   0  0  0  0  0  0  0  0  0  0  0  0
   10.9680    1.2307    0.0000 O   0  0  0  0  0  0  0  0  0  0  0  0
    6.4613   -3.8162    0.0000 O   0  0  0  0  0  0  0  0  0  0  0  0
    6.6704   -1.8272    0.0000 O   0  0  0  0  0  0  0  0  0  0  0  0
    9.2360    4.2307    0.0000 O   0  0  0  0  0  0  0  0  0  0  0  0
    9.2360    1.2307    0.0000 N   0  0  0  0  0  0  0  0  0  0  0  0
   10.1020    2.7307    0.0000 N   0  0  0  0  0  0  0  0  0  0  0  0
    5.5714   -2.7172    0.0000 N   0  0  0  0  0  0  0  0  0  0  0  0
   10.0450   -0.3571    0.0000 C   0  0  2  0  0  0  0  0  0  0  0  0
    9.7360   -1.3082    0.0000 C   0  0  1  0  0  0  0  0  0  0  0  0
    9.2360    0.2307    0.0000 C   0  0  1  0  0  0  0  0  0  0  0  0
    8.7360   -1.3082    0.0000 C   0  0  1  0  0  0  0  0  0  0  0  0
   10.6328    0.4519    0.0000 C   0  0  0  0  0  0  0  0  0  0  0  0
    8.1482   -2.1172    0.0000 C   0  0  0  0  0  0  0  0  0  0  0  0
   10.1020    1.7307    0.0000 C   0  0  0  0  0  0  0  0  0  0  0  0
    8.3699    1.7307    0.0000 C   0  0  0  0  0  0  0  0  0  0  0  0
    8.3699    2.7307    0.0000 C   0  0  0  0  0  0  0  0  0  0  0  0
    9.2360    3.2307    0.0000 C   0  0  0  0  0  0  0  0  0  0  0  0
    4.9836   -3.5262    0.0000 C   0  0  0  0  0  0  0  0  0  0  0  0
    3.9890   -3.4216    0.0000 C   0  0  0  0  0  0  0  0  0  0  0  0
    3.5823   -2.5081    0.0000 C   0  0  0  0  0  0  0  0  0  0  0  0
    3.4013   -4.2307    0.0000 C   0  0  0  0  0  0  0  0  0  0  0  0
    2.5878   -2.4036    0.0000 C   0  0  0  0  0  0  0  0  0  0  0  0
    2.4067   -4.1261    0.0000 C   0  0  0  0  0  0  0  0  0  0  0  0
    2.0000   -3.2126    0.0000 C   0  0  0  0  0  0  0  0  0  0  0  0
    9.4545   -1.8606    0.0000 H   0  0  0  0  0  0  0  0  0  0  0  0
    8.6835    0.5121    0.0000 H   0  0  0  0  0  0  0  0  0  0  0  0
    8.1236   -1.2112    0.0000 H   0  0  0  0  0  0  0  0  0  0  0  0
   11.1344    0.0875    0.0000 H   0  0  0  0  0  0  0  0  0  0  0  0
   10.9972    0.9535    0.0000 H   0  0  0  0  0  0  0  0  0  0  0  0
   10.1312    0.8163    0.0000 H   0  0  0  0  0  0  0  0  0  0  0  0
    7.6466   -1.7528    0.0000 H   1  0  0  0  0  0  0  0  0  0  0  0
    8.6498   -2.4816    0.0000 H   1  0  0  0  0  0  0  0  0  0  0  0
   11.4568   -0.2513    0.0000 H   0  0  0  0  0  0  0  0  0  0  0  0
   10.0716   -2.6836    0.0000 H   0  0  0  0  0  0  0  0  0  0  0  0
    7.8330    1.4207    0.0000 H   0  0  0  0  0  0  0  0  0  0  0  0
   10.6389    3.0407    0.0000 H   0  0  0  0  0  0  0  0  0  0  0  0
    7.8330    3.0407    0.0000 H   1  0  0  0  0  0  0  0  0  0  0  0
    5.3192   -2.1508    0.0000 H   0  0  0  0  0  0  0  0  0  0  0  0
    4.8127   -4.1222    0.0000 H   0  0  0  0  0  0  0  0  0  0  0  0
    5.5408   -3.7980    0.0000 H   0  0  0  0  0  0  0  0  0  0  0  0
    6.9629   -4.1806    0.0000 H   0  0  0  0  0  0  0  0  0  0  0  0
    3.9467   -2.0065    0.0000 H   0  0  0  0  0  0  0  0  0  0  0  0
    3.6534   -4.7971    0.0000 H   0  0  0  0  0  0  0  0  0  0  0  0
    2.3356   -1.8372    0.0000 H   0  0  0  0  0  0  0  0  0  0  0  0
    2.0423   -4.6277    0.0000 H   0  0  0  0  0  0  0  0  0  0  0  0
    1.3834   -3.1478    0.0000 H   0  0  0  0  0  0  0  0  0  0  0  0
  1  5  1  0  0  0  0
  1  7  1  0  0  0  0
  1  8  2  0  0  0  0
  1 12  1  0  0  0  0
  2 15  1  0  0  0  0
  2 16  1  0  0  0  0
 13  3  1  6  0  0  0
  3 38  1  0  0  0  0
 14  4  1  6  0  0  0
  4 39  1  0  0  0  0
  5 18  1  0  0  0  0
  6 19  2  0  0  0  0
  7 46  1  0  0  0  0
  9 22  2  0  0  0  0
 15 10  1  1  0  0  0
 10 19  1  0  0  0  0
 10 20  1  0  0  0  0
 11 19  1  0  0  0  0
 11 22  1  0  0  0  0
 11 41  1  0  0  0  0
 12 23  1  0  0  0  0
 12 43  1  0  0  0  0
 13 14  1  0  0  0  0
 13 15  1  0  0  0  0
 13 17  1  0  0  0  0
 14 16  1  0  0  0  0
 14 30  1  0  0  0  0
 15 31  1  0  0  0  0
 16 18  1  1  0  0  0
 16 32  1  0  0  0  0
 17 33  1  0  0  0  0
 17 34  1  0  0  0  0
 17 35  1  0  0  0  0
 18 36  1  0  0  0  0
 18 37  1  0  0  0  0
 20 21  2  0  0  0  0
 20 40  1  0  0  0  0
 21 22  1  0  0  0  0
 21 42  1  0  0  0  0
 23 24  1  0  0  0  0
 23 44  1  0  0  0  0
 23 45  1  0  0  0  0
 24 25  2  0  0  0  0
 24 26  1  0  0  0  0
 25 27  1  0  0  0  0
 25 47  1  0  0  0  0
 26 28  2  0  0  0  0
 26 48  1  0  0  0  0
 27 29  2  0  0  0  0
 27 49  1  0  0  0  0
 28 29  1  0  0  0  0
 28 50  1  0  0  0  0
 29 51  1  0  0  0  0
M  ISO  3  36   2  37   2  42   2
M  END
> <PUBCHEM_COMPOUND_CID>
118668864

> <PUBCHEM_COMPOUND_CANONICALIZED>
1

> <PUBCHEM_CACTVS_COMPLEXITY>
713

> <PUBCHEM_CACTVS_HBOND_ACCEPTOR>
9

> <PUBCHEM_CACTVS_HBOND_DONOR>
5

> <PUBCHEM_CACTVS_ROTATABLE_BOND>
7

> <PUBCHEM_CACTVS_SUBSKEYS>
AAADceB7PAIAAAAAAAAAAAAAAAAAASAAAAAwQAAAAAAAAAABAAAAHgAQiCAADFThmAYzAIPABxCIQiFWUICCAAAgAgAIiIAIBMiLMCKAkRGOYABvlyIbiMfwsAIOAAAAAAAAAAAAAAAAAAAAAAAAAAAAAA==

> <PUBCHEM_IUPAC_OPENEYE_NAME>
N-benzyl-[dideuterio-[(2R,3R,4R,5R)-5-(5-deuterio-2,4-dioxo-pyrimidin-1-yl)-3,4-dihydroxy-4-methyl-tetrahydrofuran-2-yl]methoxy]phosphonamidic acid

> <PUBCHEM_IUPAC_CAS_NAME>
[dideuterio-[(2R,3R,4R,5R)-5-(5-deuterio-2,4-dioxo-1-pyrimidinyl)-3,4-dihydroxy-4-methyl-2-oxolanyl]methoxy]-N-(phenylmethyl)phosphonamidic acid

> <PUBCHEM_IUPAC_NAME_MARKUP>
<I>N</I>-benzyl-[dideuterio-[(2<I>R</I>,3<I>R</I>,4<I>R</I>,5<I>R</I>)-5-(5-deuterio-2,4-dioxopyrimidin-1-yl)-3,4-dihydroxy-4-methyloxolan-2-yl]methoxy]phosphonamidic acid

> <PUBCHEM_IUPAC_NAME>
N-benzyl-[dideuterio-[(2R,3R,4R,5R)-5-(5-deuterio-2,4-dioxopyrimidin-1-yl)-3,4-dihydroxy-4-methyloxolan-2-yl]methoxy]phosphonamidic acid

> <PUBCHEM_IUPAC_SYSTEMATIC_NAME>
[dideuterio-[(2R,3R,4R,5R)-5-[5-deuterio-2,4-bis(oxidanylidene)pyrimidin-1-yl]-4-methyl-3,4-bis(oxidanyl)oxolan-2-yl]methoxy]-N-(phenylmethyl)phosphonamidic acid

> <PUBCHEM_IUPAC_TRADITIONAL_NAME>
N-benzyl-[dideuterio-[(2R,3R,4R,5R)-5-(5-deuterio-2,4-diketo-pyrimidin-1-yl)-3,4-dihydroxy-4-methyl-tetrahydrofuran-2-yl]methoxy]phosphonamidic acid

> <PUBCHEM_IUPAC_INCHI>
InChI=1S/C17H22N3O8P/c1-17(24)14(22)12(28-15(17)20-8-7-13(21)19-16(20)23)10-27-29(25,26)18-9-11-5-3-2-4-6-11/h2-8,12,14-15,22,24H,9-10H2,1H3,(H2,18,25,26)(H,19,21,23)/t12-,14-,15-,17-/m1/s1/i7D,10D2

> <PUBCHEM_IUPAC_INCHIKEY>
XFKNQOFEFNBSJO-GVWJENJISA-N

> <PUBCHEM_XLOGP3_AA>
-2

> <PUBCHEM_EXACT_MASS>
430.13328190

> <PUBCHEM_MOLECULAR_FORMULA>
C17H22N3O8P

> <PUBCHEM_MOLECULAR_WEIGHT>
430.4

> <PUBCHEM_OPENEYE_CAN_SMILES>
CC1(C(C(OC1N2C=CC(=O)NC2=O)COP(=O)(NCC3=CC=CC=C3)O)O)O

> <PUBCHEM_OPENEYE_ISO_SMILES>
[2H]C1=CN(C(=O)NC1=O)[C@H]2[C@]([C@@H]([C@H](O2)C([2H])([2H])OP(=O)(NCC3=CC=CC=C3)O)O)(C)O

> <PUBCHEM_CACTVS_TPSA>
158

> <PUBCHEM_MONOISOTOPIC_WEIGHT>
430.13328190

> <PUBCHEM_TOTAL_CHARGE>
0

> <PUBCHEM_HEAVY_ATOM_COUNT>
29

> <PUBCHEM_ATOM_DEF_STEREO_COUNT>
4

> <PUBCHEM_ATOM_UDEF_STEREO_COUNT>
0

> <PUBCHEM_BOND_DEF_STEREO_COUNT>
0

> <PUBCHEM_BOND_UDEF_STEREO_COUNT>
0

> <PUBCHEM_ISOTOPIC_ATOM_COUNT>
3

> <PUBCHEM_COMPONENT_COUNT>
1

> <PUBCHEM_CACTVS_TAUTO_COUNT>
-1

> <PUBCHEM_COORDINATE_TYPE>
1
5
255

> <PUBCHEM_BONDANNOTATIONS>
15  10  5
10  19  8
10  20  8
11  19  8
11  22  8
16  18  5
20  21  8
21  22  8
24  25  8
24  26  8
25  27  8
26  28  8
27  29  8
28  29  8
13  3  6
14  4  6

$$$$
