 
  -OEChem-10192103352D

 41 40  0     0  0  0  0  0  0999 V2000
    2.5369   -0.0000    0.0000 O   0  0  0  0  0  0  0  0  0  0  0  0
    6.0010    0.0000    0.0000 O   0  0  0  0  0  0  0  0  0  0  0  0
    3.4030   -1.5000    0.0000 O   0  0  0  0  0  0  0  0  0  0  0  0
    5.1350    1.5000    0.0000 O   0  0  0  0  0  0  0  0  0  0  0  0
    4.2690    0.0000    0.0000 C   0  0  0  0  0  0  0  0  0  0  0  0
    3.7690    0.8660    0.0000 C   0  0  0  0  0  0  0  0  0  0  0  0
    4.7690   -0.8660    0.0000 C   0  0  0  0  0  0  0  0  0  0  0  0
    4.2690    1.7320    0.0000 C   0  0  0  0  0  0  0  0  0  0  0  0
    4.2690   -1.7320    0.0000 C   0  0  0  0  0  0  0  0  0  0  0  0
    3.7690    2.5981    0.0000 C   0  0  0  0  0  0  0  0  0  0  0  0
    4.7690   -2.5981    0.0000 C   0  0  0  0  0  0  0  0  0  0  0  0
    3.4030   -0.5000    0.0000 C   0  0  0  0  0  0  0  0  0  0  0  0
    5.1350    0.5000    0.0000 C   0  0  0  0  0  0  0  0  0  0  0  0
    4.2690    3.4641    0.0000 C   0  0  0  0  0  0  0  0  0  0  0  0
    4.2690   -3.4641    0.0000 C   0  0  0  0  0  0  0  0  0  0  0  0
    3.7690    4.3301    0.0000 C   0  0  0  0  0  0  0  0  0  0  0  0
    4.7690   -4.3301    0.0000 C   0  0  0  0  0  0  0  0  0  0  0  0
    3.2940    1.2646    0.0000 H   0  0  0  0  0  0  0  0  0  0  0  0
    3.2940    0.4675    0.0000 H   0  0  0  0  0  0  0  0  0  0  0  0
    5.2439   -1.2646    0.0000 H   0  0  0  0  0  0  0  0  0  0  0  0
    5.2439   -0.4675    0.0000 H   0  0  0  0  0  0  0  0  0  0  0  0
    4.7439    1.3335    0.0000 H   0  0  0  0  0  0  0  0  0  0  0  0
    4.7439    2.1306    0.0000 H   0  0  0  0  0  0  0  0  0  0  0  0
    3.7940   -1.3335    0.0000 H   0  0  0  0  0  0  0  0  0  0  0  0
    3.7940   -2.1306    0.0000 H   0  0  0  0  0  0  0  0  0  0  0  0
    3.2940    2.9966    0.0000 H   0  0  0  0  0  0  0  0  0  0  0  0
    3.2940    2.1996    0.0000 H   0  0  0  0  0  0  0  0  0  0  0  0
    5.2439   -2.9966    0.0000 H   0  0  0  0  0  0  0  0  0  0  0  0
    5.2439   -2.1996    0.0000 H   0  0  0  0  0  0  0  0  0  0  0  0
    4.7439    3.0656    0.0000 H   0  0  0  0  0  0  0  0  0  0  0  0
    4.7439    3.8626    0.0000 H   0  0  0  0  0  0  0  0  0  0  0  0
    3.7940   -3.0656    0.0000 H   0  0  0  0  0  0  0  0  0  0  0  0
    3.7940   -3.8626    0.0000 H   0  0  0  0  0  0  0  0  0  0  0  0
    4.3059    4.6401    0.0000 H   0  0  0  0  0  0  0  0  0  0  0  0
    3.4590    4.8671    0.0000 H   0  0  0  0  0  0  0  0  0  0  0  0
    3.2320    4.0201    0.0000 H   0  0  0  0  0  0  0  0  0  0  0  0
    4.2320   -4.6401    0.0000 H   0  0  0  0  0  0  0  0  0  0  0  0
    5.0790   -4.8671    0.0000 H   0  0  0  0  0  0  0  0  0  0  0  0
    5.3059   -4.0201    0.0000 H   0  0  0  0  0  0  0  0  0  0  0  0
    2.0000   -0.3100    0.0000 H   0  0  0  0  0  0  0  0  0  0  0  0
    6.5380    0.3100    0.0000 H   0  0  0  0  0  0  0  0  0  0  0  0
  1 12  1  0  0  0  0
  1 40  1  0  0  0  0
  2 13  1  0  0  0  0
  2 41  1  0  0  0  0
  3 12  2  0  0  0  0
  4 13  2  0  0  0  0
  5  6  1  0  0  0  0
  5  7  1  0  0  0  0
  5 12  1  0  0  0  0
  5 13  1  0  0  0  0
  6  8  1  0  0  0  0
  6 18  1  0  0  0  0
  6 19  1  0  0  0  0
  7  9  1  0  0  0  0
  7 20  1  0  0  0  0
  7 21  1  0  0  0  0
  8 10  1  0  0  0  0
  8 22  1  0  0  0  0
  8 23  1  0  0  0  0
  9 11  1  0  0  0  0
  9 24  1  0  0  0  0
  9 25  1  0  0  0  0
 10 14  1  0  0  0  0
 10 26  1  0  0  0  0
 10 27  1  0  0  0  0
 11 15  1  0  0  0  0
 11 28  1  0  0  0  0
 11 29  1  0  0  0  0
 14 16  1  0  0  0  0
 14 30  1  0  0  0  0
 14 31  1  0  0  0  0
 15 17  1  0  0  0  0
 15 32  1  0  0  0  0
 15 33  1  0  0  0  0
 16 34  1  0  0  0  0
 16 35  1  0  0  0  0
 16 36  1  0  0  0  0
 17 37  1  0  0  0  0
 17 38  1  0  0  0  0
 17 39  1  0  0  0  0
M  END
> <PUBCHEM_COMPOUND_CID>
10399584

> <PUBCHEM_COMPOUND_CANONICALIZED>
1

> <PUBCHEM_CACTVS_COMPLEXITY>
222

> <PUBCHEM_CACTVS_HBOND_ACCEPTOR>
4

> <PUBCHEM_CACTVS_HBOND_DONOR>
2

> <PUBCHEM_CACTVS_ROTATABLE_BOND>
10

> <PUBCHEM_CACTVS_SUBSKEYS>
AAADceBwOAAAAAAAAAAAAAAAAAAAAAAAAAAAAAAAAAAAAAAAAAAAGgAACAAADgCAgAACCAAAAgAIAACQCAAAAAAAAAAAAAEAAAAAABYIAAAAQAAFIAAAAAGIyOCPAAAAAAAAAAAAAAAAAAAAAAAAAAAAAA==

> <PUBCHEM_IUPAC_OPENEYE_NAME>
2,2-dipentylpropanedioic acid

> <PUBCHEM_IUPAC_CAS_NAME>
2,2-dipentylpropanedioic acid

> <PUBCHEM_IUPAC_NAME_MARKUP>
2,2-dipentylpropanedioic acid

> <PUBCHEM_IUPAC_NAME>
2,2-dipentylpropanedioic acid

> <PUBCHEM_IUPAC_SYSTEMATIC_NAME>
2,2-dipentylpropanedioic acid

> <PUBCHEM_IUPAC_TRADITIONAL_NAME>
2,2-diamylmalonic acid

> <PUBCHEM_IUPAC_INCHI>
InChI=1S/C13H24O4/c1-3-5-7-9-13(11(14)15,12(16)17)10-8-6-4-2/h3-10H2,1-2H3,(H,14,15)(H,16,17)

> <PUBCHEM_IUPAC_INCHIKEY>
MGXSPLJEMJIYFF-UHFFFAOYSA-N

> <PUBCHEM_XLOGP3_AA>
4.4

> <PUBCHEM_EXACT_MASS>
244.16745924

> <PUBCHEM_MOLECULAR_FORMULA>
C13H24O4

> <PUBCHEM_MOLECULAR_WEIGHT>
244.33

> <PUBCHEM_OPENEYE_CAN_SMILES>
CCCCCC(CCCCC)(C(=O)O)C(=O)O

> <PUBCHEM_OPENEYE_ISO_SMILES>
CCCCCC(CCCCC)(C(=O)O)C(=O)O

> <PUBCHEM_CACTVS_TPSA>
74.6

> <PUBCHEM_MONOISOTOPIC_WEIGHT>
244.16745924

> <PUBCHEM_TOTAL_CHARGE>
0

> <PUBCHEM_HEAVY_ATOM_COUNT>
17

> <PUBCHEM_ATOM_DEF_STEREO_COUNT>
0

> <PUBCHEM_ATOM_UDEF_STEREO_COUNT>
0

> <PUBCHEM_BOND_DEF_STEREO_COUNT>
0

> <PUBCHEM_BOND_UDEF_STEREO_COUNT>
0

> <PUBCHEM_ISOTOPIC_ATOM_COUNT>
0

> <PUBCHEM_COMPONENT_COUNT>
1

> <PUBCHEM_CACTVS_TAUTO_COUNT>
-1

> <PUBCHEM_COORDINATE_TYPE>
1
5
255

$$$$
