 
  -OEChem-10192103362D

 19 19  0     1  0  0  0  0  0999 V2000
    4.5576   -1.0116    0.0000 O   0  0  0  0  0  0  0  0  0  0  0  0
    3.4699    1.3362    0.0000 O   0  0  0  0  0  0  0  0  0  0  0  0
    2.5896   -1.7110    0.0000 O   0  0  0  0  0  0  0  0  0  0  0  0
    5.6454    1.3362    0.0000 O   0  0  0  0  0  0  0  0  0  0  0  0
    6.3177   -0.7329    0.0000 O   0  0  0  0  0  0  0  0  0  0  0  0
    3.7486   -0.4239    0.0000 C   0  0  3  0  0  0  0  0  0  0  0  0
    4.0576    0.5272    0.0000 C   0  0  3  0  0  0  0  0  0  0  0  0
    2.7976   -0.7329    0.0000 C   0  0  3  0  0  0  0  0  0  0  0  0
    5.0576    0.5272    0.0000 C   0  0  0  0  0  0  0  0  0  0  0  0
    2.0544   -0.0637    0.0000 C   0  0  0  0  0  0  0  0  0  0  0  0
    5.3667   -0.4239    0.0000 C   0  0  0  0  0  0  0  0  0  0  0  0
    4.3383   -0.2323    0.0000 H   0  0  0  0  0  0  0  0  0  0  0  0
    3.4453    0.4302    0.0000 H   0  0  0  0  0  0  0  0  0  0  0  0
    3.2583   -1.1477    0.0000 H   0  0  0  0  0  0  0  0  0  0  0  0
    2.4693    0.3970    0.0000 H   0  0  0  0  0  0  0  0  0  0  0  0
    1.5937    0.3511    0.0000 H   0  0  0  0  0  0  0  0  0  0  0  0
    1.6396   -0.5245    0.0000 H   0  0  0  0  0  0  0  0  0  0  0  0
    3.7220    1.9026    0.0000 H   0  0  0  0  0  0  0  0  0  0  0  0
    2.0000   -1.9026    0.0000 H   0  0  0  0  0  0  0  0  0  0  0  0
  1  6  1  0  0  0  0
  1 11  1  0  0  0  0
  2  7  1  0  0  0  0
  2 18  1  0  0  0  0
  3  8  1  0  0  0  0
  3 19  1  0  0  0  0
  4  9  2  0  0  0  0
  5 11  2  0  0  0  0
  6  7  1  0  0  0  0
  6  8  1  0  0  0  0
  6 12  1  0  0  0  0
  7  9  1  0  0  0  0
  7 13  1  0  0  0  0
  8 10  1  0  0  0  0
  8 14  1  0  0  0  0
  9 11  1  0  0  0  0
 10 15  1  0  0  0  0
 10 16  1  0  0  0  0
 10 17  1  0  0  0  0
M  END
> <PUBCHEM_COMPOUND_CID>
54093559

> <PUBCHEM_COMPOUND_CANONICALIZED>
1

> <PUBCHEM_CACTVS_COMPLEXITY>
199

> <PUBCHEM_CACTVS_HBOND_ACCEPTOR>
5

> <PUBCHEM_CACTVS_HBOND_DONOR>
2

> <PUBCHEM_CACTVS_ROTATABLE_BOND>
1

> <PUBCHEM_CACTVS_SUBSKEYS>
AAADccBgOAAAAAAAAAAAAAAAAAAAASAAAAAAAAAAAAAAAAAAAAAAGgAACAAACBSggAICCAAABgAIAICQCAIAAAAAAAAAAAFAAAABEBYAAAQCQAAFIAADAAGKbARAAAAAAAAAAAAAAAAAAAAAAAAAAAAAAA==

> <PUBCHEM_IUPAC_OPENEYE_NAME>
4-hydroxy-5-(1-hydroxyethyl)tetrahydrofuran-2,3-dione

> <PUBCHEM_IUPAC_CAS_NAME>
4-hydroxy-5-(1-hydroxyethyl)oxolane-2,3-dione

> <PUBCHEM_IUPAC_NAME_MARKUP>
4-hydroxy-5-(1-hydroxyethyl)oxolane-2,3-dione

> <PUBCHEM_IUPAC_NAME>
4-hydroxy-5-(1-hydroxyethyl)oxolane-2,3-dione

> <PUBCHEM_IUPAC_SYSTEMATIC_NAME>
5-(1-hydroxyethyl)-4-oxidanyl-oxolane-2,3-dione

> <PUBCHEM_IUPAC_TRADITIONAL_NAME>
4-hydroxy-5-(1-hydroxyethyl)tetrahydrofuran-2,3-quinone

> <PUBCHEM_IUPAC_INCHI>
InChI=1S/C6H8O5/c1-2(7)5-3(8)4(9)6(10)11-5/h2-3,5,7-8H,1H3

> <PUBCHEM_IUPAC_INCHIKEY>
MVNSIQJDSOUHLH-UHFFFAOYSA-N

> <PUBCHEM_XLOGP3_AA>
-0.5

> <PUBCHEM_EXACT_MASS>
160.03717335

> <PUBCHEM_MOLECULAR_FORMULA>
C6H8O5

> <PUBCHEM_MOLECULAR_WEIGHT>
160.12

> <PUBCHEM_OPENEYE_CAN_SMILES>
CC(C1C(C(=O)C(=O)O1)O)O

> <PUBCHEM_OPENEYE_ISO_SMILES>
CC(C1C(C(=O)C(=O)O1)O)O

> <PUBCHEM_CACTVS_TPSA>
83.8

> <PUBCHEM_MONOISOTOPIC_WEIGHT>
160.03717335

> <PUBCHEM_TOTAL_CHARGE>
0

> <PUBCHEM_HEAVY_ATOM_COUNT>
11

> <PUBCHEM_ATOM_DEF_STEREO_COUNT>
0

> <PUBCHEM_ATOM_UDEF_STEREO_COUNT>
3

> <PUBCHEM_BOND_DEF_STEREO_COUNT>
0

> <PUBCHEM_BOND_UDEF_STEREO_COUNT>
0

> <PUBCHEM_ISOTOPIC_ATOM_COUNT>
0

> <PUBCHEM_COMPONENT_COUNT>
1

> <PUBCHEM_CACTVS_TAUTO_COUNT>
-1

> <PUBCHEM_COORDINATE_TYPE>
1
5
255

> <PUBCHEM_BONDANNOTATIONS>
6  1  3
7  2  3
8  3  3

$$$$
