 
  -OEChem-10192103272D

 59 61  0     1  0  0  0  0  0999 V2000
    7.7331   -1.2500    0.0000 O   0  0  0  0  0  0  0  0  0  0  0  0
    6.0010   -0.2500    0.0000 O   0  0  0  0  0  0  0  0  0  0  0  0
    4.2690   -0.2500    0.0000 O   0  0  0  0  0  0  0  0  0  0  0  0
    9.4651   -1.2500    0.0000 O   0  0  0  0  0  0  0  0  0  0  0  0
    6.0010   -3.2500    0.0000 O   0  0  0  0  0  0  0  0  0  0  0  0
    7.7331   -4.2500    0.0000 O   0  0  0  0  0  0  0  0  0  0  0  0
    9.4651   -3.2500    0.0000 O   0  0  0  0  0  0  0  0  0  0  0  0
    6.0010    1.7500    0.0000 O   0  0  0  0  0  0  0  0  0  0  0  0
    4.2690    2.7500    0.0000 O   0  0  0  0  0  0  0  0  0  0  0  0
    2.5369    1.7500    0.0000 O   0  0  0  0  0  0  0  0  0  0  0  0
   12.0632    3.2500    0.0000 O   0  0  0  0  0  0  0  0  0  0  0  0
   10.3312    4.2500    0.0000 O   0  0  0  0  0  0  0  0  0  0  0  0
    6.8671   -1.7500    0.0000 C   0  0  1  0  0  0  0  0  0  0  0  0
    6.8671   -2.7500    0.0000 C   0  0  2  0  0  0  0  0  0  0  0  0
    7.7331   -3.2500    0.0000 C   0  0  2  0  0  0  0  0  0  0  0  0
    8.5991   -2.7500    0.0000 C   0  0  2  0  0  0  0  0  0  0  0  0
    8.5991   -1.7500    0.0000 C   0  0  1  0  0  0  0  0  0  0  0  0
    6.0010   -1.2500    0.0000 C   0  0  0  0  0  0  0  0  0  0  0  0
    5.1350    0.2500    0.0000 C   0  0  2  0  0  0  0  0  0  0  0  0
    5.1350    1.2500    0.0000 C   0  0  1  0  0  0  0  0  0  0  0  0
    4.2690    1.7500    0.0000 C   0  0  2  0  0  0  0  0  0  0  0  0
    3.4030    1.2500    0.0000 C   0  0  1  0  0  0  0  0  0  0  0  0
    3.4030    0.2500    0.0000 C   0  0  0  0  0  0  0  0  0  0  0  0
    9.4651   -0.2500    0.0000 C   0  0  0  0  0  0  0  0  0  0  0  0
   10.3312    0.2500    0.0000 C   0  0  0  0  0  0  0  0  0  0  0  0
   10.3312    1.2500    0.0000 C   0  0  0  0  0  0  0  0  0  0  0  0
   11.1972    1.7500    0.0000 C   0  0  0  0  0  0  0  0  0  0  0  0
    9.4651    1.7500    0.0000 C   0  0  0  0  0  0  0  0  0  0  0  0
   11.1972    2.7500    0.0000 C   0  0  0  0  0  0  0  0  0  0  0  0
    9.4651    2.7500    0.0000 C   0  0  0  0  0  0  0  0  0  0  0  0
   10.3312    3.2500    0.0000 C   0  0  0  0  0  0  0  0  0  0  0  0
    6.8671   -1.1300    0.0000 H   0  0  0  0  0  0  0  0  0  0  0  0
    6.8671   -3.3700    0.0000 H   0  0  0  0  0  0  0  0  0  0  0  0
    7.1962   -3.5600    0.0000 H   0  0  0  0  0  0  0  0  0  0  0  0
    8.5991   -3.3700    0.0000 H   0  0  0  0  0  0  0  0  0  0  0  0
    8.5991   -1.1300    0.0000 H   0  0  0  0  0  0  0  0  0  0  0  0
    5.3905   -1.1423    0.0000 H   0  0  0  0  0  0  0  0  0  0  0  0
    5.7890   -1.8326    0.0000 H   0  0  0  0  0  0  0  0  0  0  0  0
    5.6720    0.5600    0.0000 H   0  0  0  0  0  0  0  0  0  0  0  0
    5.1350    1.8700    0.0000 H   0  0  0  0  0  0  0  0  0  0  0  0
    3.7320    2.0600    0.0000 H   0  0  0  0  0  0  0  0  0  0  0  0
    3.4030    1.8700    0.0000 H   0  0  0  0  0  0  0  0  0  0  0  0
    2.7924    0.3577    0.0000 H   0  0  0  0  0  0  0  0  0  0  0  0
    3.1909   -0.3326    0.0000 H   0  0  0  0  0  0  0  0  0  0  0  0
    5.4641   -2.9400    0.0000 H   0  0  0  0  0  0  0  0  0  0  0  0
    7.1962   -4.5600    0.0000 H   0  0  0  0  0  0  0  0  0  0  0  0
   10.0021   -2.9400    0.0000 H   0  0  0  0  0  0  0  0  0  0  0  0
    9.2531    0.3326    0.0000 H   0  0  0  0  0  0  0  0  0  0  0  0
    8.8546   -0.3577    0.0000 H   0  0  0  0  0  0  0  0  0  0  0  0
    6.0010    2.3700    0.0000 H   0  0  0  0  0  0  0  0  0  0  0  0
    3.7320    3.0600    0.0000 H   0  0  0  0  0  0  0  0  0  0  0  0
    2.0000    1.4400    0.0000 H   0  0  0  0  0  0  0  0  0  0  0  0
   10.5432   -0.3326    0.0000 H   0  0  0  0  0  0  0  0  0  0  0  0
   10.9417    0.3577    0.0000 H   0  0  0  0  0  0  0  0  0  0  0  0
   11.7341    1.4400    0.0000 H   0  0  0  0  0  0  0  0  0  0  0  0
    8.9282    1.4400    0.0000 H   0  0  0  0  0  0  0  0  0  0  0  0
    8.9282    3.0600    0.0000 H   0  0  0  0  0  0  0  0  0  0  0  0
   12.6002    2.9400    0.0000 H   0  0  0  0  0  0  0  0  0  0  0  0
    9.7942    4.5600    0.0000 H   0  0  0  0  0  0  0  0  0  0  0  0
  1 13  1  0  0  0  0
  1 17  1  0  0  0  0
  2 18  1  0  0  0  0
 19  2  1  6  0  0  0
  3 19  1  0  0  0  0
  3 23  1  0  0  0  0
 17  4  1  1  0  0  0
  4 24  1  0  0  0  0
 14  5  1  6  0  0  0
  5 45  1  0  0  0  0
 15  6  1  6  0  0  0
  6 46  1  0  0  0  0
 16  7  1  6  0  0  0
  7 47  1  0  0  0  0
 20  8  1  1  0  0  0
  8 50  1  0  0  0  0
 21  9  1  6  0  0  0
  9 51  1  0  0  0  0
 22 10  1  1  0  0  0
 10 52  1  0  0  0  0
 11 29  1  0  0  0  0
 11 58  1  0  0  0  0
 12 31  1  0  0  0  0
 12 59  1  0  0  0  0
 13 14  1  0  0  0  0
 13 18  1  1  0  0  0
 13 32  1  0  0  0  0
 14 15  1  0  0  0  0
 14 33  1  0  0  0  0
 15 16  1  0  0  0  0
 15 34  1  0  0  0  0
 16 17  1  0  0  0  0
 16 35  1  0  0  0  0
 17 36  1  0  0  0  0
 18 37  1  0  0  0  0
 18 38  1  0  0  0  0
 19 20  1  0  0  0  0
 19 39  1  0  0  0  0
 20 21  1  0  0  0  0
 20 40  1  0  0  0  0
 21 22  1  0  0  0  0
 21 41  1  0  0  0  0
 22 23  1  0  0  0  0
 22 42  1  0  0  0  0
 23 43  1  0  0  0  0
 23 44  1  0  0  0  0
 24 25  1  0  0  0  0
 24 48  1  0  0  0  0
 24 49  1  0  0  0  0
 25 26  1  0  0  0  0
 25 53  1  0  0  0  0
 25 54  1  0  0  0  0
 26 27  2  0  0  0  0
 26 28  1  0  0  0  0
 27 29  1  0  0  0  0
 27 55  1  0  0  0  0
 28 30  2  0  0  0  0
 28 56  1  0  0  0  0
 29 31  2  0  0  0  0
 30 31  1  0  0  0  0
 30 57  1  0  0  0  0
M  END
> <PUBCHEM_COMPOUND_CID>
101456596

> <PUBCHEM_COMPOUND_CANONICALIZED>
1

> <PUBCHEM_CACTVS_COMPLEXITY>
552

> <PUBCHEM_CACTVS_HBOND_ACCEPTOR>
12

> <PUBCHEM_CACTVS_HBOND_DONOR>
8

> <PUBCHEM_CACTVS_ROTATABLE_BOND>
7

> <PUBCHEM_CACTVS_SUBSKEYS>
AAADceB4PAAAAAAAAAAAAAAAAAAAAAAAAAA0SIAAAAAAAAABAAAAGgAACAAADBSwmAMwDoAABgCAAiBCAAACAAAgIAAIiAAGiIgZNiKCERKicAElwBEPmAfA4LwOIAABAAAAQABAAAIAAACAAAAAAAAAAA==

> <PUBCHEM_IUPAC_OPENEYE_NAME>
(2R,3R,4R,5S,6R)-2-[2-(3,4-dihydroxyphenyl)ethoxy]-6-[[(2S,3R,4S,5R)-3,4,5-trihydroxytetrahydropyran-2-yl]oxymethyl]tetrahydropyran-3,4,5-triol

> <PUBCHEM_IUPAC_CAS_NAME>
(2R,3R,4R,5S,6R)-2-[2-(3,4-dihydroxyphenyl)ethoxy]-6-[[(2S,3R,4S,5R)-3,4,5-trihydroxy-2-oxanyl]oxymethyl]oxane-3,4,5-triol

> <PUBCHEM_IUPAC_NAME_MARKUP>
(2<I>R</I>,3<I>R</I>,4<I>R</I>,5<I>S</I>,6<I>R</I>)-2-[2-(3,4-dihydroxyphenyl)ethoxy]-6-[[(2<I>S</I>,3<I>R</I>,4<I>S</I>,5<I>R</I>)-3,4,5-trihydroxyoxan-2-yl]oxymethyl]oxane-3,4,5-triol

> <PUBCHEM_IUPAC_NAME>
(2R,3R,4R,5S,6R)-2-[2-(3,4-dihydroxyphenyl)ethoxy]-6-[[(2S,3R,4S,5R)-3,4,5-trihydroxyoxan-2-yl]oxymethyl]oxane-3,4,5-triol

> <PUBCHEM_IUPAC_SYSTEMATIC_NAME>
(2R,3R,4R,5S,6R)-2-[2-[3,4-bis(oxidanyl)phenyl]ethoxy]-6-[[(2S,3R,4S,5R)-3,4,5-tris(oxidanyl)oxan-2-yl]oxymethyl]oxane-3,4,5-triol

> <PUBCHEM_IUPAC_TRADITIONAL_NAME>
(2R,3R,4R,5S,6R)-2-[2-(3,4-dihydroxyphenyl)ethoxy]-6-[[(2S,3R,4S,5R)-3,4,5-trihydroxytetrahydropyran-2-yl]oxymethyl]tetrahydropyran-3,4,5-triol

> <PUBCHEM_IUPAC_INCHI>
InChI=1S/C19H28O12/c20-9-2-1-8(5-10(9)21)3-4-28-19-17(27)15(25)14(24)12(31-19)7-30-18-16(26)13(23)11(22)6-29-18/h1-2,5,11-27H,3-4,6-7H2/t11-,12-,13+,14-,15-,16-,17-,18+,19-/m1/s1

> <PUBCHEM_IUPAC_INCHIKEY>
DBAVYPIPGDYHNH-MFEXXTIHSA-N

> <PUBCHEM_XLOGP3_AA>
-2.9

> <PUBCHEM_EXACT_MASS>
448.15807632

> <PUBCHEM_MOLECULAR_FORMULA>
C19H28O12

> <PUBCHEM_MOLECULAR_WEIGHT>
448.4

> <PUBCHEM_OPENEYE_CAN_SMILES>
C1C(C(C(C(O1)OCC2C(C(C(C(O2)OCCC3=CC(=C(C=C3)O)O)O)O)O)O)O)O

> <PUBCHEM_OPENEYE_ISO_SMILES>
C1[C@H]([C@@H]([C@H]([C@@H](O1)OC[C@@H]2[C@H]([C@H]([C@H]([C@@H](O2)OCCC3=CC(=C(C=C3)O)O)O)O)O)O)O)O

> <PUBCHEM_CACTVS_TPSA>
199

> <PUBCHEM_MONOISOTOPIC_WEIGHT>
448.15807632

> <PUBCHEM_TOTAL_CHARGE>
0

> <PUBCHEM_HEAVY_ATOM_COUNT>
31

> <PUBCHEM_ATOM_DEF_STEREO_COUNT>
9

> <PUBCHEM_ATOM_UDEF_STEREO_COUNT>
0

> <PUBCHEM_BOND_DEF_STEREO_COUNT>
0

> <PUBCHEM_BOND_UDEF_STEREO_COUNT>
0

> <PUBCHEM_ISOTOPIC_ATOM_COUNT>
0

> <PUBCHEM_COMPONENT_COUNT>
1

> <PUBCHEM_CACTVS_TAUTO_COUNT>
-1

> <PUBCHEM_COORDINATE_TYPE>
1
5
255

> <PUBCHEM_BONDANNOTATIONS>
22  10  5
13  18  5
19  2  6
26  27  8
26  28  8
27  29  8
28  30  8
29  31  8
30  31  8
17  4  5
14  5  6
15  6  6
16  7  6
20  8  5
21  9  6

$$$$
