 
  -OEChem-10192103282D

 51 53  0     0  0  0  0  0  0999 V2000
    5.5301   -1.9879    0.0000 O   0  0  0  0  0  0  0  0  0  0  0  0
    8.1282   -1.4879    0.0000 O   0  0  0  0  0  0  0  0  0  0  0  0
    9.8602   -0.4879    0.0000 O   0  0  0  0  0  0  0  0  0  0  0  0
    8.1282    2.5121    0.0000 O   0  0  0  0  0  0  0  0  0  0  0  0
    9.8602    1.5121    0.0000 O   0  0  0  0  0  0  0  0  0  0  0  0
    5.5301    1.0121    0.0000 O   0  0  0  0  0  0  0  0  0  0  0  0
    2.0000    0.0362    0.0000 O   0  0  0  0  0  0  0  0  0  0  0  0
    2.0000   -2.0121    0.0000 O   0  0  0  0  0  0  0  0  0  0  0  0
    7.2622    0.0121    0.0000 C   0  0  0  0  0  0  0  0  0  0  0  0
    6.3961   -0.4879    0.0000 C   0  0  0  0  0  0  0  0  0  0  0  0
    4.6641   -0.4879    0.0000 C   0  0  0  0  0  0  0  0  0  0  0  0
    5.5301    0.0121    0.0000 C   0  0  0  0  0  0  0  0  0  0  0  0
    8.1282   -0.4879    0.0000 C   0  0  0  0  0  0  0  0  0  0  0  0
    4.6641   -1.4879    0.0000 C   0  0  0  0  0  0  0  0  0  0  0  0
    7.2622    1.0121    0.0000 C   0  0  0  0  0  0  0  0  0  0  0  0
    8.9942    0.0121    0.0000 C   0  0  0  0  0  0  0  0  0  0  0  0
    8.1282    1.5121    0.0000 C   0  0  0  0  0  0  0  0  0  0  0  0
    6.3961   -1.4879    0.0000 C   0  0  0  0  0  0  0  0  0  0  0  0
    8.9942    1.0121    0.0000 C   0  0  0  0  0  0  0  0  0  0  0  0
    3.7702    0.0467    0.0000 C   0  0  0  0  0  0  0  0  0  0  0  0
    3.7702   -2.0226    0.0000 C   0  0  0  0  0  0  0  0  0  0  0  0
    2.8641   -0.4671    0.0000 C   0  0  0  0  0  0  0  0  0  0  0  0
    2.8641   -1.5087    0.0000 C   0  0  0  0  0  0  0  0  0  0  0  0
    8.9942   -1.9879    0.0000 C   0  0  0  0  0  0  0  0  0  0  0  0
   10.7263    0.0121    0.0000 C   0  0  0  0  0  0  0  0  0  0  0  0
    7.2622    3.0121    0.0000 C   0  0  0  0  0  0  0  0  0  0  0  0
    9.8602    2.5121    0.0000 C   0  0  0  0  0  0  0  0  0  0  0  0
    2.0038    1.0362    0.0000 C   0  0  0  0  0  0  0  0  0  0  0  0
    2.0038   -3.0121    0.0000 C   0  0  0  0  0  0  0  0  0  0  0  0
    6.7252    1.3221    0.0000 H   0  0  0  0  0  0  0  0  0  0  0  0
    6.9331   -1.7979    0.0000 H   0  0  0  0  0  0  0  0  0  0  0  0
    3.7773    0.6667    0.0000 H   0  0  0  0  0  0  0  0  0  0  0  0
    3.7773   -2.6426    0.0000 H   0  0  0  0  0  0  0  0  0  0  0  0
    8.6842   -2.5249    0.0000 H   0  0  0  0  0  0  0  0  0  0  0  0
    9.5312   -2.2979    0.0000 H   0  0  0  0  0  0  0  0  0  0  0  0
    9.3042   -1.4510    0.0000 H   0  0  0  0  0  0  0  0  0  0  0  0
   11.0363   -0.5249    0.0000 H   0  0  0  0  0  0  0  0  0  0  0  0
   11.2632    0.3221    0.0000 H   0  0  0  0  0  0  0  0  0  0  0  0
   10.4163    0.5490    0.0000 H   0  0  0  0  0  0  0  0  0  0  0  0
    7.5722    3.5490    0.0000 H   0  0  0  0  0  0  0  0  0  0  0  0
    6.7252    3.3221    0.0000 H   0  0  0  0  0  0  0  0  0  0  0  0
    6.9522    2.4751    0.0000 H   0  0  0  0  0  0  0  0  0  0  0  0
   10.4803    2.5121    0.0000 H   0  0  0  0  0  0  0  0  0  0  0  0
    9.8602    3.1321    0.0000 H   0  0  0  0  0  0  0  0  0  0  0  0
    9.2402    2.5121    0.0000 H   0  0  0  0  0  0  0  0  0  0  0  0
    2.6238    1.0338    0.0000 H   0  0  0  0  0  0  0  0  0  0  0  0
    2.0062    1.6562    0.0000 H   0  0  0  0  0  0  0  0  0  0  0  0
    1.3839    1.0386    0.0000 H   0  0  0  0  0  0  0  0  0  0  0  0
    1.3839   -3.0145    0.0000 H   0  0  0  0  0  0  0  0  0  0  0  0
    2.0062   -3.6321    0.0000 H   0  0  0  0  0  0  0  0  0  0  0  0
    2.6238   -3.0097    0.0000 H   0  0  0  0  0  0  0  0  0  0  0  0
  1 14  1  0  0  0  0
  1 18  1  0  0  0  0
  2 13  1  0  0  0  0
  2 24  1  0  0  0  0
  3 16  1  0  0  0  0
  3 25  1  0  0  0  0
  4 17  1  0  0  0  0
  4 26  1  0  0  0  0
  5 19  1  0  0  0  0
  5 27  1  0  0  0  0
  6 12  2  0  0  0  0
  7 22  1  0  0  0  0
  7 28  1  0  0  0  0
  8 23  1  0  0  0  0
  8 29  1  0  0  0  0
  9 10  1  0  0  0  0
  9 13  1  0  0  0  0
  9 15  2  0  0  0  0
 10 12  1  0  0  0  0
 10 18  2  0  0  0  0
 11 12  1  0  0  0  0
 11 14  1  0  0  0  0
 11 20  2  0  0  0  0
 13 16  2  0  0  0  0
 14 21  2  0  0  0  0
 15 17  1  0  0  0  0
 15 30  1  0  0  0  0
 16 19  1  0  0  0  0
 17 19  2  0  0  0  0
 18 31  1  0  0  0  0
 20 22  1  0  0  0  0
 20 32  1  0  0  0  0
 21 23  1  0  0  0  0
 21 33  1  0  0  0  0
 22 23  2  0  0  0  0
 24 34  1  0  0  0  0
 24 35  1  0  0  0  0
 24 36  1  0  0  0  0
 25 37  1  0  0  0  0
 25 38  1  0  0  0  0
 25 39  1  0  0  0  0
 26 40  1  0  0  0  0
 26 41  1  0  0  0  0
 26 42  1  0  0  0  0
 27 43  1  0  0  0  0
 27 44  1  0  0  0  0
 27 45  1  0  0  0  0
 28 46  1  0  0  0  0
 28 47  1  0  0  0  0
 28 48  1  0  0  0  0
 29 49  1  0  0  0  0
 29 50  1  0  0  0  0
 29 51  1  0  0  0  0
M  END
> <PUBCHEM_COMPOUND_CID>
49866075

> <PUBCHEM_COMPOUND_CANONICALIZED>
1

> <PUBCHEM_CACTVS_COMPLEXITY>
593

> <PUBCHEM_CACTVS_HBOND_ACCEPTOR>
8

> <PUBCHEM_CACTVS_HBOND_DONOR>
0

> <PUBCHEM_CACTVS_ROTATABLE_BOND>
7

> <PUBCHEM_CACTVS_SUBSKEYS>
AAADceB4PAAAAAAAAAAAAAAAAAAAAAAAAAAwYIAAAAAAAACBQAAAGgAAAAAADASgmAIyBoAABACIAqBSAAACCAAkIAAAiAEGiMgNJzaENBqAMWIl4BUKqYfK7PzOIQABCAAIQABCAAIQABCAAAAAAAAAAA==

> <PUBCHEM_IUPAC_OPENEYE_NAME>
6,7-dimethoxy-3-(2,3,4,5-tetramethoxyphenyl)chromen-4-one

> <PUBCHEM_IUPAC_CAS_NAME>
6,7-dimethoxy-3-(2,3,4,5-tetramethoxyphenyl)-1-benzopyran-4-one

> <PUBCHEM_IUPAC_NAME_MARKUP>
6,7-dimethoxy-3-(2,3,4,5-tetramethoxyphenyl)chromen-4-one

> <PUBCHEM_IUPAC_NAME>
6,7-dimethoxy-3-(2,3,4,5-tetramethoxyphenyl)chromen-4-one

> <PUBCHEM_IUPAC_SYSTEMATIC_NAME>
6,7-dimethoxy-3-(2,3,4,5-tetramethoxyphenyl)chromen-4-one

> <PUBCHEM_IUPAC_TRADITIONAL_NAME>
6,7-dimethoxy-3-(2,3,4,5-tetramethoxyphenyl)chromone

> <PUBCHEM_IUPAC_INCHI>
InChI=1S/C21H22O8/c1-23-15-8-12-14(9-16(15)24-2)29-10-13(18(12)22)11-7-17(25-3)20(27-5)21(28-6)19(11)26-4/h7-10H,1-6H3

> <PUBCHEM_IUPAC_INCHIKEY>
CYOJVRDOUOSYBX-UHFFFAOYSA-N

> <PUBCHEM_XLOGP3_AA>
3

> <PUBCHEM_EXACT_MASS>
402.13146766

> <PUBCHEM_MOLECULAR_FORMULA>
C21H22O8

> <PUBCHEM_MOLECULAR_WEIGHT>
402.4

> <PUBCHEM_OPENEYE_CAN_SMILES>
COC1=C(C=C2C(=C1)C(=O)C(=CO2)C3=CC(=C(C(=C3OC)OC)OC)OC)OC

> <PUBCHEM_OPENEYE_ISO_SMILES>
COC1=C(C=C2C(=C1)C(=O)C(=CO2)C3=CC(=C(C(=C3OC)OC)OC)OC)OC

> <PUBCHEM_CACTVS_TPSA>
81.7

> <PUBCHEM_MONOISOTOPIC_WEIGHT>
402.13146766

> <PUBCHEM_TOTAL_CHARGE>
0

> <PUBCHEM_HEAVY_ATOM_COUNT>
29

> <PUBCHEM_ATOM_DEF_STEREO_COUNT>
0

> <PUBCHEM_ATOM_UDEF_STEREO_COUNT>
0

> <PUBCHEM_BOND_DEF_STEREO_COUNT>
0

> <PUBCHEM_BOND_UDEF_STEREO_COUNT>
0

> <PUBCHEM_ISOTOPIC_ATOM_COUNT>
0

> <PUBCHEM_COMPONENT_COUNT>
1

> <PUBCHEM_CACTVS_TAUTO_COUNT>
-1

> <PUBCHEM_COORDINATE_TYPE>
1
5
255

> <PUBCHEM_BONDANNOTATIONS>
1  14  8
1  18  8
10  12  8
10  18  8
11  12  8
11  14  8
11  20  8
13  16  8
14  21  8
15  17  8
16  19  8
17  19  8
20  22  8
21  23  8
22  23  8
9  13  8
9  15  8

$$$$
