 
  -OEChem-10192104402D

 23 23  0     1  0  0  0  0  0999 V2000
    4.2634   -2.7428    0.0000 O   0  0  0  0  0  0  0  0  0  0  0  0
    3.1756   -0.3949    0.0000 O   0  0  0  0  0  0  0  0  0  0  0  0
    3.4013    2.2412    0.0000 O   0  0  0  0  0  0  0  0  0  0  0  0
    2.0000    1.2231    0.0000 O   0  0  0  0  0  0  0  0  0  0  0  0
    3.7634   -1.2039    0.0000 C   0  0  3  0  0  0  0  0  0  0  0  0
    4.7634   -1.2039    0.0000 C   0  0  0  0  0  0  0  0  0  0  0  0
    3.4543   -2.1550    0.0000 C   0  0  0  0  0  0  0  0  0  0  0  0
    5.0724   -2.1550    0.0000 C   0  0  0  0  0  0  0  0  0  0  0  0
    3.5823    0.5186    0.0000 C   0  0  3  0  0  0  0  0  0  0  0  0
    4.5768    0.6232    0.0000 C   0  0  0  0  0  0  0  0  0  0  0  0
    2.9945    1.3276    0.0000 C   0  0  0  0  0  0  0  0  0  0  0  0
    4.0448   -0.6515    0.0000 H   0  0  0  0  0  0  0  0  0  0  0  0
    5.3698   -1.0750    0.0000 H   0  0  0  0  0  0  0  0  0  0  0  0
    4.6986   -0.5873    0.0000 H   0  0  0  0  0  0  0  0  0  0  0  0
    2.8879   -1.9028    0.0000 H   0  0  0  0  0  0  0  0  0  0  0  0
    3.1443   -2.6919    0.0000 H   0  0  0  0  0  0  0  0  0  0  0  0
    5.3824   -2.6919    0.0000 H   0  0  0  0  0  0  0  0  0  0  0  0
    5.6388   -1.9028    0.0000 H   0  0  0  0  0  0  0  0  0  0  0  0
    2.9657    0.4538    0.0000 H   0  0  0  0  0  0  0  0  0  0  0  0
    4.6416    0.0066    0.0000 H   0  0  0  0  0  0  0  0  0  0  0  0
    5.1934    0.6880    0.0000 H   0  0  0  0  0  0  0  0  0  0  0  0
    4.5120    1.2398    0.0000 H   0  0  0  0  0  0  0  0  0  0  0  0
    3.0368    2.7428    0.0000 H   0  0  0  0  0  0  0  0  0  0  0  0
  1  7  1  0  0  0  0
  1  8  1  0  0  0  0
  2  5  1  0  0  0  0
  2  9  1  0  0  0  0
  3 11  1  0  0  0  0
  3 23  1  0  0  0  0
  4 11  2  0  0  0  0
  5  6  1  0  0  0  0
  5  7  1  0  0  0  0
  5 12  1  0  0  0  0
  6  8  1  0  0  0  0
  6 13  1  0  0  0  0
  6 14  1  0  0  0  0
  7 15  1  0  0  0  0
  7 16  1  0  0  0  0
  8 17  1  0  0  0  0
  8 18  1  0  0  0  0
  9 10  1  0  0  0  0
  9 11  1  0  0  0  0
  9 19  1  0  0  0  0
 10 20  1  0  0  0  0
 10 21  1  0  0  0  0
 10 22  1  0  0  0  0
M  END
> <PUBCHEM_COMPOUND_CID>
63556416

> <PUBCHEM_COMPOUND_CANONICALIZED>
1

> <PUBCHEM_CACTVS_COMPLEXITY>
145

> <PUBCHEM_CACTVS_HBOND_ACCEPTOR>
4

> <PUBCHEM_CACTVS_HBOND_DONOR>
1

> <PUBCHEM_CACTVS_ROTATABLE_BOND>
3

> <PUBCHEM_CACTVS_SUBSKEYS>
AAADccBgOAAAAAAAAAAAAAAAAAAAASAAAAAAAAAAAAAAAAAAAAAAGgAACAAACBSggAICCAAABgAIAACQCAIAAAAAAAAAAAFAAAABAAAAAAQCQAAFAAADAAAAAAAAAAAAAAAAAAAAAAAAAAAAAAAAAAAAAA==

> <PUBCHEM_IUPAC_OPENEYE_NAME>
2-tetrahydrofuran-3-yloxypropanoic acid

> <PUBCHEM_IUPAC_CAS_NAME>
2-(3-oxolanyloxy)propanoic acid

> <PUBCHEM_IUPAC_NAME_MARKUP>
2-(oxolan-3-yloxy)propanoic acid

> <PUBCHEM_IUPAC_NAME>
2-(oxolan-3-yloxy)propanoic acid

> <PUBCHEM_IUPAC_SYSTEMATIC_NAME>
2-(oxolan-3-yloxy)propanoic acid

> <PUBCHEM_IUPAC_TRADITIONAL_NAME>
2-tetrahydrofuran-3-yloxypropionic acid

> <PUBCHEM_IUPAC_INCHI>
InChI=1S/C7H12O4/c1-5(7(8)9)11-6-2-3-10-4-6/h5-6H,2-4H2,1H3,(H,8,9)

> <PUBCHEM_IUPAC_INCHIKEY>
VDHNVQTZZQKYKU-UHFFFAOYSA-N

> <PUBCHEM_XLOGP3_AA>
0.1

> <PUBCHEM_EXACT_MASS>
160.07355886

> <PUBCHEM_MOLECULAR_FORMULA>
C7H12O4

> <PUBCHEM_MOLECULAR_WEIGHT>
160.17

> <PUBCHEM_OPENEYE_CAN_SMILES>
CC(C(=O)O)OC1CCOC1

> <PUBCHEM_OPENEYE_ISO_SMILES>
CC(C(=O)O)OC1CCOC1

> <PUBCHEM_CACTVS_TPSA>
55.8

> <PUBCHEM_MONOISOTOPIC_WEIGHT>
160.07355886

> <PUBCHEM_TOTAL_CHARGE>
0

> <PUBCHEM_HEAVY_ATOM_COUNT>
11

> <PUBCHEM_ATOM_DEF_STEREO_COUNT>
0

> <PUBCHEM_ATOM_UDEF_STEREO_COUNT>
2

> <PUBCHEM_BOND_DEF_STEREO_COUNT>
0

> <PUBCHEM_BOND_UDEF_STEREO_COUNT>
0

> <PUBCHEM_ISOTOPIC_ATOM_COUNT>
0

> <PUBCHEM_COMPONENT_COUNT>
1

> <PUBCHEM_CACTVS_TAUTO_COUNT>
-1

> <PUBCHEM_COORDINATE_TYPE>
1
5
255

> <PUBCHEM_BONDANNOTATIONS>
5  2  3
9  10  3

$$$$
