 
  -OEChem-10192104372D

 88 92  0     1  0  0  0  0  0999 V2000
    9.5127   -0.0982    0.0000 O   0  0  0  0  0  0  0  0  0  0  0  0
    8.8747    2.9035    0.0000 O   0  0  0  0  0  0  0  0  0  0  0  0
    6.8671    1.3086    0.0000 O   0  0  0  0  0  0  0  0  0  0  0  0
   11.5169    1.5029    0.0000 O   0  0  0  0  0  0  0  0  0  0  0  0
    6.8671   -2.6914    0.0000 O   0  0  0  0  0  0  0  0  0  0  0  0
    5.1350   -2.6914    0.0000 O   0  0  0  0  0  0  0  0  0  0  0  0
    5.1350    0.3086    0.0000 O   0  0  0  0  0  0  0  0  0  0  0  0
   13.2472    2.5059    0.0000 O   0  0  0  0  0  0  0  0  0  0  0  0
   11.5100    5.5029    0.0000 O   0  0  0  0  0  0  0  0  0  0  0  0
    5.1350   -1.6914    0.0000 O   0  0  0  0  0  0  0  0  0  0  0  0
   13.2438    4.5059    0.0000 O   0  0  0  0  0  0  0  0  0  0  0  0
    6.8671   -4.6914    0.0000 O   0  0  0  0  0  0  0  0  0  0  0  0
    5.1350   -5.6914    0.0000 O   0  0  0  0  0  0  0  0  0  0  0  0
    3.4030   -4.6914    0.0000 O   0  0  0  0  0  0  0  0  0  0  0  0
    2.5369   -3.1914    0.0000 O   0  0  0  0  0  0  0  0  0  0  0  0
    8.7036    1.3031    0.0000 C   0  0  2  0  0  0  0  0  0  0  0  0
    9.6818    1.5110    0.0000 C   0  0  2  0  0  0  0  0  0  0  0  0
    8.5991    0.3086    0.0000 C   0  0  2  0  0  0  0  0  0  0  0  0
    9.7831    2.4999    0.0000 C   0  0  2  0  0  0  0  0  0  0  0  0
   10.1818    0.6450    0.0000 C   0  0  0  0  0  0  0  0  0  0  0  0
    8.2088    2.1653    0.0000 C   0  0  0  0  0  0  0  0  0  0  0  0
    7.7331   -0.1914    0.0000 C   0  0  0  0  0  0  0  0  0  0  0  0
   10.6483    3.0014    0.0000 C   0  0  0  0  0  0  0  0  0  0  0  0
    6.8671    0.3086    0.0000 C   0  0  0  0  0  0  0  0  0  0  0  0
    7.7331   -1.1914    0.0000 C   0  0  0  0  0  0  0  0  0  0  0  0
   11.5152    2.5029    0.0000 C   0  0  0  0  0  0  0  0  0  0  0  0
   10.6466    4.0014    0.0000 C   0  0  0  0  0  0  0  0  0  0  0  0
    6.8671   -1.6914    0.0000 C   0  0  0  0  0  0  0  0  0  0  0  0
    6.0010   -0.1914    0.0000 C   0  0  0  0  0  0  0  0  0  0  0  0
   12.3803    3.0044    0.0000 C   0  0  0  0  0  0  0  0  0  0  0  0
   11.5117    4.5029    0.0000 C   0  0  0  0  0  0  0  0  0  0  0  0
    6.0010   -1.1914    0.0000 C   0  0  0  0  0  0  0  0  0  0  0  0
   12.3786    4.0044    0.0000 C   0  0  0  0  0  0  0  0  0  0  0  0
    6.0010   -3.1914    0.0000 C   0  0  2  0  0  0  0  0  0  0  0  0
    6.0010   -4.1914    0.0000 C   0  0  1  0  0  0  0  0  0  0  0  0
    5.1350   -4.6914    0.0000 C   0  0  2  0  0  0  0  0  0  0  0  0
    4.2690   -4.1914    0.0000 C   0  0  1  0  0  0  0  0  0  0  0  0
    4.2690   -3.1914    0.0000 C   0  0  1  0  0  0  0  0  0  0  0  0
    6.0010    1.8086    0.0000 C   0  0  0  0  0  0  0  0  0  0  0  0
    3.4030   -2.6914    0.0000 C   0  0  0  0  0  0  0  0  0  0  0  0
   12.3838    1.0044    0.0000 C   0  0  0  0  0  0  0  0  0  0  0  0
    4.2690   -0.1914    0.0000 C   0  0  0  0  0  0  0  0  0  0  0  0
   14.1124    3.0074    0.0000 C   0  0  0  0  0  0  0  0  0  0  0  0
   10.6431    6.0014    0.0000 C   0  0  0  0  0  0  0  0  0  0  0  0
    4.2690   -1.1914    0.0000 C   0  0  0  0  0  0  0  0  0  0  0  0
   13.2420    5.5059    0.0000 C   0  0  0  0  0  0  0  0  0  0  0  0
    7.8720    1.1275    0.0000 H   0  0  0  0  0  0  0  0  0  0  0  0
   10.5130    1.6888    0.0000 H   0  0  0  0  0  0  0  0  0  0  0  0
    8.6436   -0.5402    0.0000 H   0  0  0  0  0  0  0  0  0  0  0  0
    9.7376    3.3487    0.0000 H   0  0  0  0  0  0  0  0  0  0  0  0
   10.5967    0.1842    0.0000 H   0  0  0  0  0  0  0  0  0  0  0  0
   10.6834    1.0094    0.0000 H   0  0  0  0  0  0  0  0  0  0  0  0
    7.7946    2.6266    0.0000 H   0  0  0  0  0  0  0  0  0  0  0  0
    7.7065    1.8019    0.0000 H   0  0  0  0  0  0  0  0  0  0  0  0
    8.2700   -1.5014    0.0000 H   0  0  0  0  0  0  0  0  0  0  0  0
   10.1091    4.3105    0.0000 H   0  0  0  0  0  0  0  0  0  0  0  0
    6.5380   -3.5014    0.0000 H   0  0  0  0  0  0  0  0  0  0  0  0
    6.0010   -4.8114    0.0000 H   0  0  0  0  0  0  0  0  0  0  0  0
    4.5981   -5.0014    0.0000 H   0  0  0  0  0  0  0  0  0  0  0  0
    4.2690   -4.8114    0.0000 H   0  0  0  0  0  0  0  0  0  0  0  0
    4.2690   -2.5714    0.0000 H   0  0  0  0  0  0  0  0  0  0  0  0
    6.3110    2.3455    0.0000 H   0  0  0  0  0  0  0  0  0  0  0  0
    5.4641    2.1186    0.0000 H   0  0  0  0  0  0  0  0  0  0  0  0
    5.6910    1.2716    0.0000 H   0  0  0  0  0  0  0  0  0  0  0  0
    3.8015   -2.2165    0.0000 H   0  0  0  0  0  0  0  0  0  0  0  0
    3.0044   -2.2165    0.0000 H   0  0  0  0  0  0  0  0  0  0  0  0
   12.0747    0.4669    0.0000 H   0  0  0  0  0  0  0  0  0  0  0  0
   12.9213    0.6953    0.0000 H   0  0  0  0  0  0  0  0  0  0  0  0
   12.6929    1.5419    0.0000 H   0  0  0  0  0  0  0  0  0  0  0  0
    6.8671   -5.3114    0.0000 H   0  0  0  0  0  0  0  0  0  0  0  0
    4.5981   -6.0014    0.0000 H   0  0  0  0  0  0  0  0  0  0  0  0
    3.4030   -5.3114    0.0000 H   0  0  0  0  0  0  0  0  0  0  0  0
    3.9590    0.3455    0.0000 H   0  0  0  0  0  0  0  0  0  0  0  0
    3.7320   -0.5014    0.0000 H   0  0  0  0  0  0  0  0  0  0  0  0
    4.5790   -0.7283    0.0000 H   0  0  0  0  0  0  0  0  0  0  0  0
   14.4233    2.4710    0.0000 H   0  0  0  0  0  0  0  0  0  0  0  0
   14.6488    3.3183    0.0000 H   0  0  0  0  0  0  0  0  0  0  0  0
   13.8015    3.5438    0.0000 H   0  0  0  0  0  0  0  0  0  0  0  0
   10.9522    6.5389    0.0000 H   0  0  0  0  0  0  0  0  0  0  0  0
   10.1056    6.3105    0.0000 H   0  0  0  0  0  0  0  0  0  0  0  0
   10.3340    5.4639    0.0000 H   0  0  0  0  0  0  0  0  0  0  0  0
    4.5790   -0.6545    0.0000 H   0  0  0  0  0  0  0  0  0  0  0  0
    3.7320   -0.8814    0.0000 H   0  0  0  0  0  0  0  0  0  0  0  0
    3.9590   -1.7284    0.0000 H   0  0  0  0  0  0  0  0  0  0  0  0
   13.8620    5.5070    0.0000 H   0  0  0  0  0  0  0  0  0  0  0  0
   13.2410    6.1259    0.0000 H   0  0  0  0  0  0  0  0  0  0  0  0
   12.6220    5.5048    0.0000 H   0  0  0  0  0  0  0  0  0  0  0  0
    2.0000   -2.8814    0.0000 H   0  0  0  0  0  0  0  0  0  0  0  0
  1 18  1  0  0  0  0
  1 20  1  0  0  0  0
  2 19  1  0  0  0  0
  2 21  1  0  0  0  0
  3 24  1  0  0  0  0
  3 39  1  0  0  0  0
  4 26  1  0  0  0  0
  4 41  1  0  0  0  0
  5 28  1  0  0  0  0
 34  5  1  1  0  0  0
  6 34  1  0  0  0  0
  6 38  1  0  0  0  0
  7 29  1  0  0  0  0
  7 42  1  0  0  0  0
  8 30  1  0  0  0  0
  8 43  1  0  0  0  0
  9 31  1  0  0  0  0
  9 44  1  0  0  0  0
 10 32  1  0  0  0  0
 10 45  1  0  0  0  0
 11 33  1  0  0  0  0
 11 46  1  0  0  0  0
 35 12  1  6  0  0  0
 12 70  1  0  0  0  0
 36 13  1  1  0  0  0
 13 71  1  0  0  0  0
 37 14  1  6  0  0  0
 14 72  1  0  0  0  0
 15 40  1  0  0  0  0
 15 88  1  0  0  0  0
 16 17  1  0  0  0  0
 16 18  1  0  0  0  0
 16 21  1  0  0  0  0
 16 47  1  1  0  0  0
 17 19  1  0  0  0  0
 17 20  1  0  0  0  0
 17 48  1  1  0  0  0
 18 22  1  0  0  0  0
 18 49  1  6  0  0  0
 19 23  1  0  0  0  0
 19 50  1  6  0  0  0
 20 51  1  0  0  0  0
 20 52  1  0  0  0  0
 21 53  1  0  0  0  0
 21 54  1  0  0  0  0
 22 24  1  0  0  0  0
 22 25  2  0  0  0  0
 23 26  1  0  0  0  0
 23 27  2  0  0  0  0
 24 29  2  0  0  0  0
 25 28  1  0  0  0  0
 25 55  1  0  0  0  0
 26 30  2  0  0  0  0
 27 31  1  0  0  0  0
 27 56  1  0  0  0  0
 28 32  2  0  0  0  0
 29 32  1  0  0  0  0
 30 33  1  0  0  0  0
 31 33  2  0  0  0  0
 34 35  1  0  0  0  0
 34 57  1  0  0  0  0
 35 36  1  0  0  0  0
 35 58  1  0  0  0  0
 36 37  1  0  0  0  0
 36 59  1  0  0  0  0
 37 38  1  0  0  0  0
 37 60  1  0  0  0  0
 38 40  1  1  0  0  0
 38 61  1  0  0  0  0
 39 62  1  0  0  0  0
 39 63  1  0  0  0  0
 39 64  1  0  0  0  0
 40 65  1  0  0  0  0
 40 66  1  0  0  0  0
 41 67  1  0  0  0  0
 41 68  1  0  0  0  0
 41 69  1  0  0  0  0
 42 73  1  0  0  0  0
 42 74  1  0  0  0  0
 42 75  1  0  0  0  0
 43 76  1  0  0  0  0
 43 77  1  0  0  0  0
 43 78  1  0  0  0  0
 44 79  1  0  0  0  0
 44 80  1  0  0  0  0
 44 81  1  0  0  0  0
 45 82  1  0  0  0  0
 45 83  1  0  0  0  0
 45 84  1  0  0  0  0
 46 85  1  0  0  0  0
 46 86  1  0  0  0  0
 46 87  1  0  0  0  0
M  END
> <PUBCHEM_COMPOUND_CID>
132566271

> <PUBCHEM_COMPOUND_CANONICALIZED>
1

> <PUBCHEM_CACTVS_COMPLEXITY>
946

> <PUBCHEM_CACTVS_HBOND_ACCEPTOR>
15

> <PUBCHEM_CACTVS_HBOND_DONOR>
4

> <PUBCHEM_CACTVS_ROTATABLE_BOND>
12

> <PUBCHEM_CACTVS_SUBSKEYS>
AAADcfB4PAAAAAAAAAAAAAAAAAAAASJAAAA0YIAAAAASAAABQAAAGgAACAAADRSwmAMyDoAABgCAAiBCAAACCAAgIAAAiAAGiIgdNyKEMRqieCKlwBUPqAfA4PwOoQABCAAIQABCAAIQABCAAAAAAAAAAA==

> <PUBCHEM_IUPAC_OPENEYE_NAME>
(2S,3R,4S,5S,6R)-2-[5-[(3R,3aS,6R,6aS)-3-(2,3,4,5-tetramethoxyphenyl)-1,3,3a,4,6,6a-hexahydrofuro[3,4-c]furan-6-yl]-2,3,4-trimethoxy-phenoxy]-6-(hydroxymethyl)tetrahydropyran-3,4,5-triol

> <PUBCHEM_IUPAC_CAS_NAME>
(2S,3R,4S,5S,6R)-2-[5-[(3R,3aS,6R,6aS)-3-(2,3,4,5-tetramethoxyphenyl)-1,3,3a,4,6,6a-hexahydrofuro[3,4-c]furan-6-yl]-2,3,4-trimethoxyphenoxy]-6-(hydroxymethyl)oxane-3,4,5-triol

> <PUBCHEM_IUPAC_NAME_MARKUP>
(2<I>S</I>,3<I>R</I>,4<I>S</I>,5<I>S</I>,6<I>R</I>)-2-[5-[(3<I>R</I>,3<I>a</I><I>S</I>,6<I>R</I>,6<I>a</I><I>S</I>)-3-(2,3,4,5-tetramethoxyphenyl)-1,3,3<I>a</I>,4,6,6<I>a</I>-hexahydrofuro[3,4-c]furan-6-yl]-2,3,4-trimethoxyphenoxy]-6-(hydroxymethyl)oxane-3,4,5-triol

> <PUBCHEM_IUPAC_NAME>
(2S,3R,4S,5S,6R)-2-[5-[(3R,3aS,6R,6aS)-3-(2,3,4,5-tetramethoxyphenyl)-1,3,3a,4,6,6a-hexahydrofuro[3,4-c]furan-6-yl]-2,3,4-trimethoxyphenoxy]-6-(hydroxymethyl)oxane-3,4,5-triol

> <PUBCHEM_IUPAC_SYSTEMATIC_NAME>
(2S,3R,4S,5S,6R)-2-[5-[(3R,3aS,6R,6aS)-3-(2,3,4,5-tetramethoxyphenyl)-1,3,3a,4,6,6a-hexahydrofuro[3,4-c]furan-6-yl]-2,3,4-trimethoxy-phenoxy]-6-(hydroxymethyl)oxane-3,4,5-triol

> <PUBCHEM_IUPAC_TRADITIONAL_NAME>
(2S,3R,4S,5S,6R)-2-[5-[(3R,3aS,6R,6aS)-3-(2,3,4,5-tetramethoxyphenyl)-1,3,3a,4,6,6a-hexahydrofuro[3,4-c]furan-6-yl]-2,3,4-trimethoxy-phenoxy]-6-methylol-tetrahydropyran-3,4,5-triol

> <PUBCHEM_IUPAC_INCHI>
InChI=1S/C31H42O15/c1-36-17-8-13(25(37-2)29(41-6)27(17)39-4)23-15-11-44-24(16(15)12-43-23)14-9-18(28(40-5)30(42-7)26(14)38-3)45-31-22(35)21(34)20(33)19(10-32)46-31/h8-9,15-16,19-24,31-35H,10-12H2,1-7H3/t15-,16-,19-,20-,21+,22-,23+,24+,31-/m1/s1

> <PUBCHEM_IUPAC_INCHIKEY>
GWKOQJOHCZUVRT-AISFJGNWSA-N

> <PUBCHEM_XLOGP3_AA>
0.7

> <PUBCHEM_EXACT_MASS>
654.25237063

> <PUBCHEM_MOLECULAR_FORMULA>
C31H42O15

> <PUBCHEM_MOLECULAR_WEIGHT>
654.7

> <PUBCHEM_OPENEYE_CAN_SMILES>
COC1=C(C(=C(C(=C1)C2C3COC(C3CO2)C4=CC(=C(C(=C4OC)OC)OC)OC5C(C(C(C(O5)CO)O)O)O)OC)OC)OC

> <PUBCHEM_OPENEYE_ISO_SMILES>
COC1=C(C(=C(C(=C1)[C@H]2[C@@H]3CO[C@H]([C@@H]3CO2)C4=CC(=C(C(=C4OC)OC)OC)O[C@H]5[C@@H]([C@H]([C@@H]([C@H](O5)CO)O)O)O)OC)OC)OC

> <PUBCHEM_CACTVS_TPSA>
182

> <PUBCHEM_MONOISOTOPIC_WEIGHT>
654.25237063

> <PUBCHEM_TOTAL_CHARGE>
0

> <PUBCHEM_HEAVY_ATOM_COUNT>
46

> <PUBCHEM_ATOM_DEF_STEREO_COUNT>
9

> <PUBCHEM_ATOM_UDEF_STEREO_COUNT>
0

> <PUBCHEM_BOND_DEF_STEREO_COUNT>
0

> <PUBCHEM_BOND_UDEF_STEREO_COUNT>
0

> <PUBCHEM_ISOTOPIC_ATOM_COUNT>
0

> <PUBCHEM_COMPONENT_COUNT>
1

> <PUBCHEM_CACTVS_TAUTO_COUNT>
-1

> <PUBCHEM_COORDINATE_TYPE>
1
5
255

> <PUBCHEM_BONDANNOTATIONS>
35  12  6
36  13  5
37  14  6
16  47  5
17  48  5
18  49  6
19  50  6
22  24  8
22  25  8
23  26  8
23  27  8
24  29  8
25  28  8
26  30  8
27  31  8
28  32  8
29  32  8
30  33  8
31  33  8
38  40  5
34  5  5

$$$$
