 
  -OEChem-10192104062D

 56 55  0     1  0  0  0  0  0999 V2000
   10.3312    3.6550    0.0000 O   0  0  0  0  0  0  0  0  0  0  0  0
    9.4651    5.1550    0.0000 O   0  0  0  0  0  0  0  0  0  0  0  0
    2.5369    4.1550    0.0000 O   0  0  0  0  0  0  0  0  0  0  0  0
    4.2690   -4.8450    0.0000 O   0  0  0  0  0  0  0  0  0  0  0  0
    3.4030    2.6550    0.0000 O   0  0  0  0  0  0  0  0  0  0  0  0
    3.4030   -3.3450    0.0000 O   0  0  0  0  0  0  0  0  0  0  0  0
    8.5991    3.6550    0.0000 C   0  0  3  0  0  0  0  0  0  0  0  0
    8.5991    2.6550    0.0000 C   0  0  0  0  0  0  0  0  0  0  0  0
    7.7331    2.1550    0.0000 C   0  0  0  0  0  0  0  0  0  0  0  0
    7.7331    4.1550    0.0000 C   0  0  0  0  0  0  0  0  0  0  0  0
    7.7331    1.1550    0.0000 C   0  0  0  0  0  0  0  0  0  0  0  0
    6.8671    0.6550    0.0000 C   0  0  0  0  0  0  0  0  0  0  0  0
    6.8671    3.6550    0.0000 C   0  0  0  0  0  0  0  0  0  0  0  0
    6.8671   -0.3450    0.0000 C   0  0  0  0  0  0  0  0  0  0  0  0
    6.0010    4.1550    0.0000 C   0  0  0  0  0  0  0  0  0  0  0  0
    6.0010   -0.8450    0.0000 C   0  0  0  0  0  0  0  0  0  0  0  0
    6.0010   -1.8450    0.0000 C   0  0  0  0  0  0  0  0  0  0  0  0
    9.4651    4.1550    0.0000 C   0  0  0  0  0  0  0  0  0  0  0  0
    5.1350    3.6550    0.0000 C   0  0  0  0  0  0  0  0  0  0  0  0
    5.1350   -2.3450    0.0000 C   0  0  0  0  0  0  0  0  0  0  0  0
    4.2690    4.1550    0.0000 C   0  0  0  0  0  0  0  0  0  0  0  0
    5.1350   -3.3450    0.0000 C   0  0  0  0  0  0  0  0  0  0  0  0
    3.4030    3.6550    0.0000 C   0  0  0  0  0  0  0  0  0  0  0  0
    4.2690   -3.8450    0.0000 C   0  0  0  0  0  0  0  0  0  0  0  0
    8.0622    3.3450    0.0000 H   0  0  0  0  0  0  0  0  0  0  0  0
    8.8112    2.0724    0.0000 H   0  0  0  0  0  0  0  0  0  0  0  0
    9.2097    2.7627    0.0000 H   0  0  0  0  0  0  0  0  0  0  0  0
    7.5210    2.7376    0.0000 H   0  0  0  0  0  0  0  0  0  0  0  0
    7.1225    2.0473    0.0000 H   0  0  0  0  0  0  0  0  0  0  0  0
    8.1316    4.6300    0.0000 H   0  0  0  0  0  0  0  0  0  0  0  0
    7.3346    4.6300    0.0000 H   0  0  0  0  0  0  0  0  0  0  0  0
    7.9451    0.5724    0.0000 H   0  0  0  0  0  0  0  0  0  0  0  0
    8.3437    1.2627    0.0000 H   0  0  0  0  0  0  0  0  0  0  0  0
    6.6550    1.2376    0.0000 H   0  0  0  0  0  0  0  0  0  0  0  0
    6.2565    0.5473    0.0000 H   0  0  0  0  0  0  0  0  0  0  0  0
    6.4685    3.1800    0.0000 H   0  0  0  0  0  0  0  0  0  0  0  0
    7.2656    3.1800    0.0000 H   0  0  0  0  0  0  0  0  0  0  0  0
    7.0791   -0.9276    0.0000 H   0  0  0  0  0  0  0  0  0  0  0  0
    7.4776   -0.2373    0.0000 H   0  0  0  0  0  0  0  0  0  0  0  0
    6.3996    4.6300    0.0000 H   0  0  0  0  0  0  0  0  0  0  0  0
    5.6025    4.6300    0.0000 H   0  0  0  0  0  0  0  0  0  0  0  0
    5.7890   -0.2624    0.0000 H   0  0  0  0  0  0  0  0  0  0  0  0
    5.3905   -0.9527    0.0000 H   0  0  0  0  0  0  0  0  0  0  0  0
    6.2131   -2.4276    0.0000 H   0  0  0  0  0  0  0  0  0  0  0  0
    6.6116   -1.7373    0.0000 H   0  0  0  0  0  0  0  0  0  0  0  0
    4.7365    3.1800    0.0000 H   0  0  0  0  0  0  0  0  0  0  0  0
    5.5335    3.1800    0.0000 H   0  0  0  0  0  0  0  0  0  0  0  0
    4.9230   -1.7624    0.0000 H   0  0  0  0  0  0  0  0  0  0  0  0
    4.5244   -2.4527    0.0000 H   0  0  0  0  0  0  0  0  0  0  0  0
    4.6675    4.6300    0.0000 H   0  0  0  0  0  0  0  0  0  0  0  0
    3.8705    4.6300    0.0000 H   0  0  0  0  0  0  0  0  0  0  0  0
    5.3471   -3.9276    0.0000 H   0  0  0  0  0  0  0  0  0  0  0  0
    5.7456   -3.2373    0.0000 H   0  0  0  0  0  0  0  0  0  0  0  0
   10.8681    3.9650    0.0000 H   0  0  0  0  0  0  0  0  0  0  0  0
    2.0000    3.8450    0.0000 H   0  0  0  0  0  0  0  0  0  0  0  0
    3.7320   -5.1550    0.0000 H   0  0  0  0  0  0  0  0  0  0  0  0
  1 18  1  0  0  0  0
  1 54  1  0  0  0  0
  2 18  2  0  0  0  0
  3 23  1  0  0  0  0
  3 55  1  0  0  0  0
  4 24  1  0  0  0  0
  4 56  1  0  0  0  0
  5 23  2  0  0  0  0
  6 24  2  0  0  0  0
  7  8  1  0  0  0  0
  7 10  1  0  0  0  0
  7 18  1  0  0  0  0
  7 25  1  0  0  0  0
  8  9  1  0  0  0  0
  8 26  1  0  0  0  0
  8 27  1  0  0  0  0
  9 11  1  0  0  0  0
  9 28  1  0  0  0  0
  9 29  1  0  0  0  0
 10 13  1  0  0  0  0
 10 30  1  0  0  0  0
 10 31  1  0  0  0  0
 11 12  1  0  0  0  0
 11 32  1  0  0  0  0
 11 33  1  0  0  0  0
 12 14  1  0  0  0  0
 12 34  1  0  0  0  0
 12 35  1  0  0  0  0
 13 15  1  0  0  0  0
 13 36  1  0  0  0  0
 13 37  1  0  0  0  0
 14 16  1  0  0  0  0
 14 38  1  0  0  0  0
 14 39  1  0  0  0  0
 15 19  1  0  0  0  0
 15 40  1  0  0  0  0
 15 41  1  0  0  0  0
 16 17  1  0  0  0  0
 16 42  1  0  0  0  0
 16 43  1  0  0  0  0
 17 20  1  0  0  0  0
 17 44  1  0  0  0  0
 17 45  1  0  0  0  0
 19 21  1  0  0  0  0
 19 46  1  0  0  0  0
 19 47  1  0  0  0  0
 20 22  1  0  0  0  0
 20 48  1  0  0  0  0
 20 49  1  0  0  0  0
 21 23  1  0  0  0  0
 21 50  1  0  0  0  0
 21 51  1  0  0  0  0
 22 24  1  0  0  0  0
 22 52  1  0  0  0  0
 22 53  1  0  0  0  0
M  END
> <PUBCHEM_COMPOUND_CID>
102084555

> <PUBCHEM_COMPOUND_CANONICALIZED>
1

> <PUBCHEM_CACTVS_COMPLEXITY>
367

> <PUBCHEM_CACTVS_HBOND_ACCEPTOR>
6

> <PUBCHEM_CACTVS_HBOND_DONOR>
3

> <PUBCHEM_CACTVS_ROTATABLE_BOND>
17

> <PUBCHEM_CACTVS_SUBSKEYS>
AAADcfB4OAAAAAAAAAAAAAAAAAAAAAAAAAAAAAAAAAAAAAAAAAAAGgAACAAADQCAgAAACAAAAgAIAACQCAAAAAAAAAAAAAEAAAAAABIAAAAAQAAEAAAAAAGIyOCOAAAAAAAAAAAAAAAAAAAAAAAAAAAAAA==

> <PUBCHEM_IUPAC_OPENEYE_NAME>
pentadecane-1,6,15-tricarboxylic acid

> <PUBCHEM_IUPAC_CAS_NAME>
pentadecane-1,6,15-tricarboxylic acid

> <PUBCHEM_IUPAC_NAME_MARKUP>
pentadecane-1,6,15-tricarboxylic acid

> <PUBCHEM_IUPAC_NAME>
pentadecane-1,6,15-tricarboxylic acid

> <PUBCHEM_IUPAC_SYSTEMATIC_NAME>
pentadecane-1,6,15-tricarboxylic acid

> <PUBCHEM_IUPAC_TRADITIONAL_NAME>
pentadecane-1,6,15-tricarboxylic acid

> <PUBCHEM_IUPAC_INCHI>
InChI=1S/C18H32O6/c19-16(20)13-9-5-3-1-2-4-7-11-15(18(23)24)12-8-6-10-14-17(21)22/h15H,1-14H2,(H,19,20)(H,21,22)(H,23,24)

> <PUBCHEM_IUPAC_INCHIKEY>
IMSPNYYSMRVVJO-UHFFFAOYSA-N

> <PUBCHEM_XLOGP3_AA>
4.5

> <PUBCHEM_EXACT_MASS>
344.21988874

> <PUBCHEM_MOLECULAR_FORMULA>
C18H32O6

> <PUBCHEM_MOLECULAR_WEIGHT>
344.4

> <PUBCHEM_OPENEYE_CAN_SMILES>
C(CCCCC(CCCCCC(=O)O)C(=O)O)CCCCC(=O)O

> <PUBCHEM_OPENEYE_ISO_SMILES>
C(CCCCC(CCCCCC(=O)O)C(=O)O)CCCCC(=O)O

> <PUBCHEM_CACTVS_TPSA>
112

> <PUBCHEM_MONOISOTOPIC_WEIGHT>
344.21988874

> <PUBCHEM_TOTAL_CHARGE>
0

> <PUBCHEM_HEAVY_ATOM_COUNT>
24

> <PUBCHEM_ATOM_DEF_STEREO_COUNT>
0

> <PUBCHEM_ATOM_UDEF_STEREO_COUNT>
1

> <PUBCHEM_BOND_DEF_STEREO_COUNT>
0

> <PUBCHEM_BOND_UDEF_STEREO_COUNT>
0

> <PUBCHEM_ISOTOPIC_ATOM_COUNT>
0

> <PUBCHEM_COMPONENT_COUNT>
1

> <PUBCHEM_CACTVS_TAUTO_COUNT>
-1

> <PUBCHEM_COORDINATE_TYPE>
1
5
255

> <PUBCHEM_BONDANNOTATIONS>
7  8  3

$$$$
