 
  -OEChem-10192103432D

 55 59  0     1  0  0  0  0  0999 V2000
    2.0000   -1.0137    0.0000 O   0  0  0  0  0  0  0  0  0  0  0  0
    3.7326    0.9863    0.0000 O   0  0  0  0  0  0  0  0  0  0  0  0
    4.5986   -1.5137    0.0000 O   0  0  0  0  0  0  0  0  0  0  0  0
    5.4646    0.9863    0.0000 O   0  0  0  0  0  0  0  0  0  0  0  0
    3.7326   -3.0137    0.0000 O   0  0  0  0  0  0  0  0  0  0  0  0
    7.2246    3.0209    0.0000 O   0  0  0  0  0  0  0  0  0  0  0  0
    8.1306    1.4654    0.0000 O   0  0  0  0  0  0  0  0  0  0  0  0
    3.7326    2.9863    0.0000 O   0  0  0  0  0  0  0  0  0  0  0  0
    5.4646    3.9863    0.0000 O   0  0  0  0  0  0  0  0  0  0  0  0
    2.8665   -0.5137    0.0000 C   0  0  3  0  0  0  0  0  0  0  0  0
    2.8665   -1.5137    0.0000 C   0  0  3  0  0  0  0  0  0  0  0  0
    3.7326   -0.0137    0.0000 C   0  0  1  0  0  0  0  0  0  0  0  0
    3.7326   -2.0137    0.0000 C   0  0  1  0  0  0  0  0  0  0  0  0
    4.5986   -0.5137    0.0000 C   0  0  0  0  0  0  0  0  0  0  0  0
    4.5986    1.4863    0.0000 C   0  0  2  0  0  0  0  0  0  0  0  0
    6.3306    2.4863    0.0000 C   0  0  1  0  0  0  0  0  0  0  0  0
    4.5986    2.4863    0.0000 C   0  0  3  0  0  0  0  0  0  0  0  0
    5.4646    2.9863    0.0000 C   0  0  3  0  0  0  0  0  0  0  0  0
    6.3306    1.4863    0.0000 C   0  0  3  0  0  0  0  0  0  0  0  0
    7.2246    0.9516    0.0000 C   0  0  0  0  0  0  0  0  0  0  0  0
    8.1306    2.5071    0.0000 C   0  0  3  0  0  0  0  0  0  0  0  0
    4.5986   -3.5137    0.0000 C   0  0  0  0  0  0  0  0  0  0  0  0
    8.9947    3.0104    0.0000 C   0  0  0  0  0  0  0  0  0  0  0  0
    4.5986   -4.5137    0.0000 C   0  0  0  0  0  0  0  0  0  0  0  0
    8.9909    4.0104    0.0000 C   0  0  0  0  0  0  0  0  0  0  0  0
    9.8627    2.5138    0.0000 C   0  0  0  0  0  0  0  0  0  0  0  0
    9.8550    4.5137    0.0000 C   0  0  0  0  0  0  0  0  0  0  0  0
   10.7268    3.0171    0.0000 C   0  0  0  0  0  0  0  0  0  0  0  0
   10.7229    4.0171    0.0000 C   0  0  0  0  0  0  0  0  0  0  0  0
    2.5566    0.0232    0.0000 H   0  0  0  0  0  0  0  0  0  0  0  0
    2.5566   -2.0507    0.0000 H   0  0  0  0  0  0  0  0  0  0  0  0
    4.2695    0.2963    0.0000 H   0  0  0  0  0  0  0  0  0  0  0  0
    3.1956   -2.3237    0.0000 H   0  0  0  0  0  0  0  0  0  0  0  0
    5.2092   -0.6214    0.0000 H   0  0  0  0  0  0  0  0  0  0  0  0
    4.8106    0.0689    0.0000 H   0  0  0  0  0  0  0  0  0  0  0  0
    4.5986    0.8663    0.0000 H   0  0  0  0  0  0  0  0  0  0  0  0
    7.0700    2.0670    0.0000 H   0  0  0  0  0  0  0  0  0  0  0  0
    4.5986    3.1063    0.0000 H   0  0  0  0  0  0  0  0  0  0  0  0
    6.0016    3.2963    0.0000 H   0  0  0  0  0  0  0  0  0  0  0  0
    6.3259    0.8663    0.0000 H   0  0  0  0  0  0  0  0  0  0  0  0
    6.8200    0.4818    0.0000 H   0  0  0  0  0  0  0  0  0  0  0  0
    7.6182    0.4726    0.0000 H   0  0  0  0  0  0  0  0  0  0  0  0
    8.6682    2.1981    0.0000 H   0  0  0  0  0  0  0  0  0  0  0  0
    3.1956    2.6763    0.0000 H   0  0  0  0  0  0  0  0  0  0  0  0
    4.9277    4.2963    0.0000 H   0  0  0  0  0  0  0  0  0  0  0  0
    5.2092   -3.6214    0.0000 H   0  0  0  0  0  0  0  0  0  0  0  0
    4.8106   -2.9311    0.0000 H   0  0  0  0  0  0  0  0  0  0  0  0
    3.9786   -4.5137    0.0000 H   0  0  0  0  0  0  0  0  0  0  0  0
    4.5986   -5.1337    0.0000 H   0  0  0  0  0  0  0  0  0  0  0  0
    5.2186   -4.5137    0.0000 H   0  0  0  0  0  0  0  0  0  0  0  0
    8.4528    4.3183    0.0000 H   0  0  0  0  0  0  0  0  0  0  0  0
    9.8651    1.8938    0.0000 H   0  0  0  0  0  0  0  0  0  0  0  0
    9.8526    5.1337    0.0000 H   0  0  0  0  0  0  0  0  0  0  0  0
   11.2649    2.7092    0.0000 H   0  0  0  0  0  0  0  0  0  0  0  0
   11.2587    4.3292    0.0000 H   0  0  0  0  0  0  0  0  0  0  0  0
  1 10  1  0  0  0  0
  1 11  1  0  0  0  0
 12  2  1  6  0  0  0
 15  2  1  1  0  0  0
  3 13  1  0  0  0  0
  3 14  1  0  0  0  0
  4 15  1  0  0  0  0
  4 19  1  0  0  0  0
 13  5  1  1  0  0  0
  5 22  1  0  0  0  0
  6 16  1  0  0  0  0
  6 21  1  0  0  0  0
  7 20  1  0  0  0  0
  7 21  1  0  0  0  0
  8 17  1  0  0  0  0
  8 44  1  0  0  0  0
  9 18  1  0  0  0  0
  9 45  1  0  0  0  0
 10 11  1  0  0  0  0
 10 12  1  0  0  0  0
 10 30  1  0  0  0  0
 11 13  1  0  0  0  0
 11 31  1  0  0  0  0
 12 14  1  0  0  0  0
 12 32  1  0  0  0  0
 13 33  1  0  0  0  0
 14 34  1  0  0  0  0
 14 35  1  0  0  0  0
 15 17  1  0  0  0  0
 15 36  1  0  0  0  0
 16 18  1  0  0  0  0
 16 19  1  0  0  0  0
 16 37  1  1  0  0  0
 17 18  1  0  0  0  0
 17 38  1  0  0  0  0
 18 39  1  0  0  0  0
 19 20  1  0  0  0  0
 19 40  1  0  0  0  0
 20 41  1  0  0  0  0
 20 42  1  0  0  0  0
 21 23  1  0  0  0  0
 21 43  1  0  0  0  0
 22 24  1  0  0  0  0
 22 46  1  0  0  0  0
 22 47  1  0  0  0  0
 23 25  2  0  0  0  0
 23 26  1  0  0  0  0
 24 48  1  0  0  0  0
 24 49  1  0  0  0  0
 24 50  1  0  0  0  0
 25 27  1  0  0  0  0
 25 51  1  0  0  0  0
 26 28  2  0  0  0  0
 26 52  1  0  0  0  0
 27 29  2  0  0  0  0
 27 53  1  0  0  0  0
 28 29  1  0  0  0  0
 28 54  1  0  0  0  0
 29 55  1  0  0  0  0
M  END
> <PUBCHEM_COMPOUND_CID>
87688658

> <PUBCHEM_COMPOUND_CANONICALIZED>
1

> <PUBCHEM_CACTVS_COMPLEXITY>
556

> <PUBCHEM_CACTVS_HBOND_ACCEPTOR>
9

> <PUBCHEM_CACTVS_HBOND_DONOR>
2

> <PUBCHEM_CACTVS_ROTATABLE_BOND>
5

> <PUBCHEM_CACTVS_SUBSKEYS>
AAADceB4PAAAAAAAAAAAAAAAEgAAAAAAAAA0SJEABIAAAACRAAAAGgAACAAADBSwmAMyCIAABgCAAiBCAAACAAAgAAAIiAAACIgZNiKAMRiicAAlwAEPqAfA4CwOAAAAAAAAAAAAAAAAAAAAAAAAAAAAAA==

> <PUBCHEM_IUPAC_OPENEYE_NAME>
(6R,8aS)-6-[[(2R,5R)-2-ethoxy-3,7-dioxabicyclo[4.1.0]heptan-5-yl]oxy]-2-phenyl-4,4a,6,7,8,8a-hexahydropyrano[3,2-d][1,3]dioxine-7,8-diol

> <PUBCHEM_IUPAC_CAS_NAME>
(6R,8aS)-6-[[(2R,5R)-2-ethoxy-3,7-dioxabicyclo[4.1.0]heptan-5-yl]oxy]-2-phenyl-4,4a,6,7,8,8a-hexahydropyrano[3,2-d][1,3]dioxin-7,8-diol

> <PUBCHEM_IUPAC_NAME_MARKUP>
(6<I>R</I>,8<I>a</I><I>S</I>)-6-[[(2<I>R</I>,5<I>R</I>)-2-ethoxy-3,7-dioxabicyclo[4.1.0]heptan-5-yl]oxy]-2-phenyl-4,4<I>a</I>,6,7,8,8<I>a</I>-hexahydropyrano[3,2-d][1,3]dioxine-7,8-diol

> <PUBCHEM_IUPAC_NAME>
(6R,8aS)-6-[[(2R,5R)-2-ethoxy-3,7-dioxabicyclo[4.1.0]heptan-5-yl]oxy]-2-phenyl-4,4a,6,7,8,8a-hexahydropyrano[3,2-d][1,3]dioxine-7,8-diol

> <PUBCHEM_IUPAC_SYSTEMATIC_NAME>
(6R,8aS)-6-[[(2R,5R)-2-ethoxy-3,7-dioxabicyclo[4.1.0]heptan-5-yl]oxy]-2-phenyl-4,4a,6,7,8,8a-hexahydropyrano[3,2-d][1,3]dioxine-7,8-diol

> <PUBCHEM_IUPAC_TRADITIONAL_NAME>
(6R,8aS)-6-[[(2R,5R)-2-ethoxy-3,7-dioxabicyclo[4.1.0]heptan-5-yl]oxy]-2-phenyl-4,4a,6,7,8,8a-hexahydropyrano[3,2-d][1,3]dioxin-7,8-diol

> <PUBCHEM_IUPAC_INCHI>
InChI=1S/C20H26O9/c1-2-23-20-17-16(28-17)12(9-25-20)27-19-14(22)13(21)15-11(26-19)8-24-18(29-15)10-6-4-3-5-7-10/h3-7,11-22H,2,8-9H2,1H3/t11?,12-,13?,14?,15-,16?,17?,18?,19+,20-/m1/s1

> <PUBCHEM_IUPAC_INCHIKEY>
KOZAZKHEGNQXMJ-PVEKQYMBSA-N

> <PUBCHEM_XLOGP3_AA>
-0.3

> <PUBCHEM_EXACT_MASS>
410.15768240

> <PUBCHEM_MOLECULAR_FORMULA>
C20H26O9

> <PUBCHEM_MOLECULAR_WEIGHT>
410.4

> <PUBCHEM_OPENEYE_CAN_SMILES>
CCOC1C2C(O2)C(CO1)OC3C(C(C4C(O3)COC(O4)C5=CC=CC=C5)O)O

> <PUBCHEM_OPENEYE_ISO_SMILES>
CCO[C@H]1C2C(O2)[C@@H](CO1)O[C@H]3C(C([C@H]4C(O3)COC(O4)C5=CC=CC=C5)O)O

> <PUBCHEM_CACTVS_TPSA>
108

> <PUBCHEM_MONOISOTOPIC_WEIGHT>
410.15768240

> <PUBCHEM_TOTAL_CHARGE>
0

> <PUBCHEM_HEAVY_ATOM_COUNT>
29

> <PUBCHEM_ATOM_DEF_STEREO_COUNT>
4

> <PUBCHEM_ATOM_UDEF_STEREO_COUNT>
6

> <PUBCHEM_BOND_DEF_STEREO_COUNT>
0

> <PUBCHEM_BOND_UDEF_STEREO_COUNT>
0

> <PUBCHEM_ISOTOPIC_ATOM_COUNT>
0

> <PUBCHEM_COMPONENT_COUNT>
1

> <PUBCHEM_CACTVS_TAUTO_COUNT>
-1

> <PUBCHEM_COORDINATE_TYPE>
1
5
255

> <PUBCHEM_BONDANNOTATIONS>
10  1  3
11  1  3
16  37  5
19  20  3
12  2  6
15  2  5
21  23  3
23  25  8
23  26  8
25  27  8
26  28  8
27  29  8
28  29  8
13  5  5
17  8  3
18  9  3

$$$$
