 
  -OEChem-10192103272D

 76 79  0     1  0  0  0  0  0999 V2000
    7.9497   -0.1267    0.0000 O   0  0  0  0  0  0  0  0  0  0  0  0
    7.7806   -1.7358    0.0000 O   0  0  0  0  0  0  0  0  0  0  0  0
    5.2503    0.1267    0.0000 O   0  0  0  0  0  0  0  0  0  0  0  0
    5.4194    1.7358    0.0000 O   0  0  0  0  0  0  0  0  0  0  0  0
    6.0010   -2.8291    0.0000 O   0  0  0  0  0  0  0  0  0  0  0  0
    7.1990    2.8291    0.0000 O   0  0  0  0  0  0  0  0  0  0  0  0
    4.2690   -2.8291    0.0000 O   0  0  0  0  0  0  0  0  0  0  0  0
    8.9311    2.8291    0.0000 O   0  0  0  0  0  0  0  0  0  0  0  0
    6.0010   -4.8291    0.0000 O   0  0  0  0  0  0  0  0  0  0  0  0
    4.2690   -5.8291    0.0000 O   0  0  0  0  0  0  0  0  0  0  0  0
    7.1990    4.8291    0.0000 O   0  0  0  0  0  0  0  0  0  0  0  0
    2.5369   -4.8291    0.0000 O   0  0  0  0  0  0  0  0  0  0  0  0
    8.9311    5.8291    0.0000 O   0  0  0  0  0  0  0  0  0  0  0  0
   10.6631    4.8291    0.0000 O   0  0  0  0  0  0  0  0  0  0  0  0
    2.5369   -1.8291    0.0000 O   0  0  0  0  0  0  0  0  0  0  0  0
   11.5291    3.3291    0.0000 O   0  0  0  0  0  0  0  0  0  0  0  0
    6.9716   -0.3346    0.0000 C   0  0  2  0  0  0  0  0  0  0  0  0
    6.2284    0.3346    0.0000 C   0  0  1  0  0  0  0  0  0  0  0  0
    6.8671   -1.3291    0.0000 C   0  0  1  0  0  0  0  0  0  0  0  0
    6.3330    1.3291    0.0000 C   0  0  2  0  0  0  0  0  0  0  0  0
    8.4497   -0.9927    0.0000 C   0  0  0  0  0  0  0  0  0  0  0  0
    6.0010   -1.8291    0.0000 C   0  0  0  0  0  0  0  0  0  0  0  0
    7.1990    1.8291    0.0000 C   0  0  0  0  0  0  0  0  0  0  0  0
    5.1350   -3.3291    0.0000 C   0  0  3  0  0  0  0  0  0  0  0  0
    5.1350   -4.3291    0.0000 C   0  0  1  0  0  0  0  0  0  0  0  0
    8.0650    3.3291    0.0000 C   0  0  2  0  0  0  0  0  0  0  0  0
    4.7503    0.9927    0.0000 C   0  0  0  0  0  0  0  0  0  0  0  0
    4.2690   -4.8291    0.0000 C   0  0  2  0  0  0  0  0  0  0  0  0
    8.0650    4.3291    0.0000 C   0  0  1  0  0  0  0  0  0  0  0  0
    3.4030   -4.3291    0.0000 C   0  0  1  0  0  0  0  0  0  0  0  0
    9.3158   -0.4927    0.0000 C   0  0  0  0  0  0  0  0  0  0  0  0
    9.1929   -1.6618    0.0000 C   0  0  0  0  0  0  0  0  0  0  0  0
    8.9311    4.8291    0.0000 C   0  0  2  0  0  0  0  0  0  0  0  0
    3.4030   -3.3291    0.0000 C   0  0  1  0  0  0  0  0  0  0  0  0
    9.7971    4.3291    0.0000 C   0  0  1  0  0  0  0  0  0  0  0  0
    9.7971    3.3291    0.0000 C   0  0  1  0  0  0  0  0  0  0  0  0
    2.5369   -2.8291    0.0000 C   0  0  0  0  0  0  0  0  0  0  0  0
   10.6631    2.8291    0.0000 C   0  0  0  0  0  0  0  0  0  0  0  0
    7.1916    0.4865    0.0000 H   0  0  0  0  0  0  0  0  0  0  0  0
    6.0084   -0.4865    0.0000 H   0  0  0  0  0  0  0  0  0  0  0  0
    6.8995   -1.9482    0.0000 H   0  0  0  0  0  0  0  0  0  0  0  0
    6.3005    1.9482    0.0000 H   0  0  0  0  0  0  0  0  0  0  0  0
    5.7890   -1.2465    0.0000 H   0  0  0  0  0  0  0  0  0  0  0  0
    5.3905   -1.9368    0.0000 H   0  0  0  0  0  0  0  0  0  0  0  0
    7.4110    1.2465    0.0000 H   0  0  0  0  0  0  0  0  0  0  0  0
    7.8096    1.9368    0.0000 H   0  0  0  0  0  0  0  0  0  0  0  0
    5.1350   -2.7091    0.0000 H   0  0  0  0  0  0  0  0  0  0  0  0
    5.1350   -4.9491    0.0000 H   0  0  0  0  0  0  0  0  0  0  0  0
    7.5281    3.6391    0.0000 H   0  0  0  0  0  0  0  0  0  0  0  0
    4.3354    1.4534    0.0000 H   0  0  0  0  0  0  0  0  0  0  0  0
    4.2487    0.6283    0.0000 H   0  0  0  0  0  0  0  0  0  0  0  0
    3.7320   -5.1391    0.0000 H   0  0  0  0  0  0  0  0  0  0  0  0
    8.0650    4.9491    0.0000 H   0  0  0  0  0  0  0  0  0  0  0  0
    3.4030   -4.9491    0.0000 H   0  0  0  0  0  0  0  0  0  0  0  0
    8.3941    5.1391    0.0000 H   0  0  0  0  0  0  0  0  0  0  0  0
    9.6258   -1.0296    0.0000 H   0  0  0  0  0  0  0  0  0  0  0  0
    9.8527   -0.1827    0.0000 H   0  0  0  0  0  0  0  0  0  0  0  0
    9.0058    0.0443    0.0000 H   0  0  0  0  0  0  0  0  0  0  0  0
    8.7780   -2.1226    0.0000 H   0  0  0  0  0  0  0  0  0  0  0  0
    9.6536   -2.0767    0.0000 H   0  0  0  0  0  0  0  0  0  0  0  0
    9.6077   -1.2011    0.0000 H   0  0  0  0  0  0  0  0  0  0  0  0
    3.4030   -2.7091    0.0000 H   0  0  0  0  0  0  0  0  0  0  0  0
    9.7971    4.9491    0.0000 H   0  0  0  0  0  0  0  0  0  0  0  0
    9.7971    2.7091    0.0000 H   0  0  0  0  0  0  0  0  0  0  0  0
    1.9264   -2.7214    0.0000 H   0  0  0  0  0  0  0  0  0  0  0  0
    2.3249   -3.4117    0.0000 H   0  0  0  0  0  0  0  0  0  0  0  0
   10.2646    2.3541    0.0000 H   0  0  0  0  0  0  0  0  0  0  0  0
   11.0616    2.3541    0.0000 H   0  0  0  0  0  0  0  0  0  0  0  0
    6.5380   -4.5191    0.0000 H   0  0  0  0  0  0  0  0  0  0  0  0
    3.7320   -6.1391    0.0000 H   0  0  0  0  0  0  0  0  0  0  0  0
    7.1990    5.4491    0.0000 H   0  0  0  0  0  0  0  0  0  0  0  0
    2.0000   -4.5191    0.0000 H   0  0  0  0  0  0  0  0  0  0  0  0
    9.4680    6.1391    0.0000 H   0  0  0  0  0  0  0  0  0  0  0  0
   10.6631    5.4491    0.0000 H   0  0  0  0  0  0  0  0  0  0  0  0
    2.0000   -1.5191    0.0000 H   0  0  0  0  0  0  0  0  0  0  0  0
   12.0661    3.0191    0.0000 H   0  0  0  0  0  0  0  0  0  0  0  0
  1 17  1  0  0  0  0
  1 21  1  0  0  0  0
  2 19  1  0  0  0  0
  2 21  1  0  0  0  0
  3 18  1  0  0  0  0
  3 27  1  0  0  0  0
  4 20  1  0  0  0  0
  4 27  1  0  0  0  0
  5 22  1  0  0  0  0
  5 24  1  0  0  0  0
  6 23  1  0  0  0  0
 26  6  1  1  0  0  0
  7 24  1  0  0  0  0
  7 34  1  0  0  0  0
  8 26  1  0  0  0  0
  8 36  1  0  0  0  0
 25  9  1  6  0  0  0
  9 69  1  0  0  0  0
 28 10  1  1  0  0  0
 10 70  1  0  0  0  0
 29 11  1  6  0  0  0
 11 71  1  0  0  0  0
 30 12  1  6  0  0  0
 12 72  1  0  0  0  0
 33 13  1  1  0  0  0
 13 73  1  0  0  0  0
 35 14  1  6  0  0  0
 14 74  1  0  0  0  0
 15 37  1  0  0  0  0
 15 75  1  0  0  0  0
 16 38  1  0  0  0  0
 16 76  1  0  0  0  0
 17 18  1  0  0  0  0
 17 19  1  0  0  0  0
 17 39  1  6  0  0  0
 18 20  1  0  0  0  0
 18 40  1  1  0  0  0
 19 22  1  6  0  0  0
 19 41  1  0  0  0  0
 20 23  1  1  0  0  0
 20 42  1  0  0  0  0
 21 31  1  0  0  0  0
 21 32  1  0  0  0  0
 22 43  1  0  0  0  0
 22 44  1  0  0  0  0
 23 45  1  0  0  0  0
 23 46  1  0  0  0  0
 24 25  1  0  0  0  0
 24 47  1  0  0  0  0
 25 28  1  0  0  0  0
 25 48  1  0  0  0  0
 26 29  1  0  0  0  0
 26 49  1  0  0  0  0
 27 50  1  0  0  0  0
 27 51  1  0  0  0  0
 28 30  1  0  0  0  0
 28 52  1  0  0  0  0
 29 33  1  0  0  0  0
 29 53  1  0  0  0  0
 30 34  1  0  0  0  0
 30 54  1  0  0  0  0
 31 56  1  0  0  0  0
 31 57  1  0  0  0  0
 31 58  1  0  0  0  0
 32 59  1  0  0  0  0
 32 60  1  0  0  0  0
 32 61  1  0  0  0  0
 33 35  1  0  0  0  0
 33 55  1  0  0  0  0
 34 37  1  1  0  0  0
 34 62  1  0  0  0  0
 35 36  1  0  0  0  0
 35 63  1  0  0  0  0
 36 38  1  1  0  0  0
 36 64  1  0  0  0  0
 37 65  1  0  0  0  0
 37 66  1  0  0  0  0
 38 67  1  0  0  0  0
 38 68  1  0  0  0  0
M  END
> <PUBCHEM_COMPOUND_CID>
58265405

> <PUBCHEM_COMPOUND_CANONICALIZED>
1

> <PUBCHEM_CACTVS_COMPLEXITY>
757

> <PUBCHEM_CACTVS_HBOND_ACCEPTOR>
16

> <PUBCHEM_CACTVS_HBOND_DONOR>
8

> <PUBCHEM_CACTVS_ROTATABLE_BOND>
9

> <PUBCHEM_CACTVS_SUBSKEYS>
AAADcfB4PgAAAAAAAAAAAAAAAAAAASJAAAAkSAAAAAAAAAAAAAAAGgAACAAACBSwgAMCCAAABgAAAAAAAAAAAAAAAAAAAAAAAAAREAIAAAAiQAAFAAAHAAHAYAwAAAAAAAAAAAAAAAAAAAAAAAAAAAAAAA==

> <PUBCHEM_IUPAC_OPENEYE_NAME>
(2R,3R,4S,5S,6R)-2-[[(4S,5R)-5-[(4S,5R)-2,2-dimethyl-5-[[(3R,4S,5S,6R)-3,4,5-trihydroxy-6-(hydroxymethyl)tetrahydropyran-2-yl]oxymethyl]-1,3-dioxolan-4-yl]-1,3-dioxolan-4-yl]methoxy]-6-(hydroxymethyl)tetrahydropyran-3,4,5-triol

> <PUBCHEM_IUPAC_CAS_NAME>
(2R,3R,4S,5S,6R)-2-[[(4S,5R)-5-[(4S,5R)-2,2-dimethyl-5-[[(3R,4S,5S,6R)-3,4,5-trihydroxy-6-(hydroxymethyl)-2-oxanyl]oxymethyl]-1,3-dioxolan-4-yl]-1,3-dioxolan-4-yl]methoxy]-6-(hydroxymethyl)oxane-3,4,5-triol

> <PUBCHEM_IUPAC_NAME_MARKUP>
(2<I>R</I>,3<I>R</I>,4<I>S</I>,5<I>S</I>,6<I>R</I>)-2-[[(4<I>S</I>,5<I>R</I>)-5-[(4<I>S</I>,5<I>R</I>)-2,2-dimethyl-5-[[(3<I>R</I>,4<I>S</I>,5<I>S</I>,6<I>R</I>)-3,4,5-trihydroxy-6-(hydroxymethyl)oxan-2-yl]oxymethyl]-1,3-dioxolan-4-yl]-1,3-dioxolan-4-yl]methoxy]-6-(hydroxymethyl)oxane-3,4,5-triol

> <PUBCHEM_IUPAC_NAME>
(2R,3R,4S,5S,6R)-2-[[(4S,5R)-5-[(4S,5R)-2,2-dimethyl-5-[[(3R,4S,5S,6R)-3,4,5-trihydroxy-6-(hydroxymethyl)oxan-2-yl]oxymethyl]-1,3-dioxolan-4-yl]-1,3-dioxolan-4-yl]methoxy]-6-(hydroxymethyl)oxane-3,4,5-triol

> <PUBCHEM_IUPAC_SYSTEMATIC_NAME>
(2R,3S,4S,5R,6R)-2-(hydroxymethyl)-6-[[(4S,5R)-5-[(4S,5R)-5-[[(3R,4S,5S,6R)-6-(hydroxymethyl)-3,4,5-tris(oxidanyl)oxan-2-yl]oxymethyl]-2,2-dimethyl-1,3-dioxolan-4-yl]-1,3-dioxolan-4-yl]methoxy]oxane-3,4,5-triol

> <PUBCHEM_IUPAC_TRADITIONAL_NAME>
(2R,3R,4S,5S,6R)-2-[[(4S,5R)-5-[(4S,5R)-2,2-dimethyl-5-[[(3R,4S,5S,6R)-3,4,5-trihydroxy-6-methylol-tetrahydropyran-2-yl]oxymethyl]-1,3-dioxolan-4-yl]-1,3-dioxolan-4-yl]methoxy]-6-methylol-tetrahydropyran-3,4,5-triol

> <PUBCHEM_IUPAC_INCHI>
InChI=1S/C22H38O16/c1-22(2)37-11(6-32-21-17(30)15(28)13(26)9(4-24)36-21)19(38-22)18-10(33-7-34-18)5-31-20-16(29)14(27)12(25)8(3-23)35-20/h8-21,23-30H,3-7H2,1-2H3/t8-,9-,10+,11-,12-,13-,14+,15+,16-,17-,18-,19+,20-,21?/m1/s1

> <PUBCHEM_IUPAC_INCHIKEY>
OWILEMHDUAPSDT-PHIXWMSQSA-N

> <PUBCHEM_XLOGP3_AA>
-4.3

> <PUBCHEM_EXACT_MASS>
558.21598512

> <PUBCHEM_MOLECULAR_FORMULA>
C22H38O16

> <PUBCHEM_MOLECULAR_WEIGHT>
558.5

> <PUBCHEM_OPENEYE_CAN_SMILES>
CC1(OC(C(O1)C2C(OCO2)COC3C(C(C(C(O3)CO)O)O)O)COC4C(C(C(C(O4)CO)O)O)O)C

> <PUBCHEM_OPENEYE_ISO_SMILES>
CC1(O[C@@H]([C@H](O1)[C@H]2[C@@H](OCO2)CO[C@H]3[C@@H]([C@H]([C@@H]([C@H](O3)CO)O)O)O)COC4[C@@H]([C@H]([C@@H]([C@H](O4)CO)O)O)O)C

> <PUBCHEM_CACTVS_TPSA>
236

> <PUBCHEM_MONOISOTOPIC_WEIGHT>
558.21598512

> <PUBCHEM_TOTAL_CHARGE>
0

> <PUBCHEM_HEAVY_ATOM_COUNT>
38

> <PUBCHEM_ATOM_DEF_STEREO_COUNT>
13

> <PUBCHEM_ATOM_UDEF_STEREO_COUNT>
1

> <PUBCHEM_BOND_DEF_STEREO_COUNT>
0

> <PUBCHEM_BOND_UDEF_STEREO_COUNT>
0

> <PUBCHEM_ISOTOPIC_ATOM_COUNT>
0

> <PUBCHEM_COMPONENT_COUNT>
1

> <PUBCHEM_CACTVS_TAUTO_COUNT>
-1

> <PUBCHEM_COORDINATE_TYPE>
1
5
255

> <PUBCHEM_BONDANNOTATIONS>
28  10  5
29  11  6
30  12  6
33  13  5
35  14  6
17  39  6
18  40  5
19  22  6
20  23  5
34  37  5
36  38  5
24  5  3
26  6  5
25  9  6

$$$$
