 
  -OEChem-10192103522D

 73 76  0     1  0  0  0  0  0999 V2000
    9.0110    1.8054    0.0000 P   0  0  0  0  0  0  0  0  0  0  0  0
    4.6037   -0.7392    0.0000 P   0  0  0  0  0  0  0  0  0  0  0  0
    8.9994    0.8055    0.0000 O   0  0  0  0  0  0  0  0  0  0  0  0
    5.4754   -1.2291    0.0000 O   0  0  0  0  0  0  0  0  0  0  0  0
    7.2335    1.8433    0.0000 O   0  0  0  0  0  0  0  0  0  0  0  0
    5.4596    0.8191    0.0000 O   0  0  0  0  0  0  0  0  0  0  0  0
   10.0110    1.7938    0.0000 O   0  0  0  0  0  0  0  0  0  0  0  0
    9.0226    2.8053    0.0000 O   0  0  0  0  0  0  0  0  0  0  0  0
    3.7319   -0.2492    0.0000 O   0  0  0  0  0  0  0  0  0  0  0  0
    4.1137   -1.6109    0.0000 O   0  0  0  0  0  0  0  0  0  0  0  0
    8.0111    1.8170    0.0000 O   0  0  0  0  0  0  0  0  0  0  0  0
    5.0936    0.1326    0.0000 O   0  0  0  0  0  0  0  0  0  0  0  0
    8.9777   -2.2260    0.0000 N   0  0  3  0  0  0  0  0  0  0  0  0
    8.1116   -2.7260    0.0000 C   0  0  0  0  0  0  0  0  0  0  0  0
    9.5956   -3.0043    0.0000 C   0  0  0  0  0  0  0  0  0  0  0  0
    9.1157   -3.8746    0.0000 C   0  0  0  0  0  0  0  0  0  0  0  0
    8.9777   -1.2260    0.0000 C   0  0  0  0  0  0  0  0  0  0  0  0
    8.1277   -3.7675    0.0000 C   0  0  0  0  0  0  0  0  0  0  0  0
    7.2456   -2.2260    0.0000 C   0  0  0  0  0  0  0  0  0  0  0  0
    8.1116   -0.7260    0.0000 C   0  0  0  0  0  0  0  0  0  0  0  0
    7.2456   -1.2260    0.0000 C   0  0  0  0  0  0  0  0  0  0  0  0
    7.2297   -4.2952    0.0000 C   0  0  0  0  0  0  0  0  0  0  0  0
    6.3356   -2.7328    0.0000 C   0  0  0  0  0  0  0  0  0  0  0  0
    8.1277    0.3155    0.0000 C   0  0  0  0  0  0  0  0  0  0  0  0
    6.3356   -0.7191    0.0000 C   0  0  0  0  0  0  0  0  0  0  0  0
    6.3276   -3.7744    0.0000 C   0  0  0  0  0  0  0  0  0  0  0  0
    7.2297    0.8433    0.0000 C   0  0  0  0  0  0  0  0  0  0  0  0
    6.3276    0.3225    0.0000 C   0  0  0  0  0  0  0  0  0  0  0  0
    6.3694    2.3466    0.0000 C   0  0  0  0  0  0  0  0  0  0  0  0
    5.4558    1.8191    0.0000 C   0  0  0  0  0  0  0  0  0  0  0  0
   10.5209    2.6540    0.0000 C   0  0  0  0  0  0  0  0  0  0  0  0
    9.8943    3.2953    0.0000 C   0  0  0  0  0  0  0  0  0  0  0  0
    2.8718   -0.7592    0.0000 C   0  0  0  0  0  0  0  0  0  0  0  0
    4.6237   -2.4711    0.0000 C   0  0  0  0  0  0  0  0  0  0  0  0
   11.5209    2.6425    0.0000 C   0  0  0  0  0  0  0  0  0  0  0  0
    9.9059    4.2952    0.0000 C   0  0  0  0  0  0  0  0  0  0  0  0
    2.0000   -0.2692    0.0000 C   0  0  0  0  0  0  0  0  0  0  0  0
    4.1338   -3.3428    0.0000 C   0  0  0  0  0  0  0  0  0  0  0  0
   10.0944   -3.3725    0.0000 H   0  0  0  0  0  0  0  0  0  0  0  0
   10.0262   -2.5583    0.0000 H   0  0  0  0  0  0  0  0  0  0  0  0
    9.5882   -1.3336    0.0000 H   0  0  0  0  0  0  0  0  0  0  0  0
    9.1897   -0.6434    0.0000 H   0  0  0  0  0  0  0  0  0  0  0  0
    8.9684   -4.4769    0.0000 H   0  0  0  0  0  0  0  0  0  0  0  0
    9.6933   -4.1000    0.0000 H   0  0  0  0  0  0  0  0  0  0  0  0
    7.2321   -4.9152    0.0000 H   0  0  0  0  0  0  0  0  0  0  0  0
    5.8023   -2.4166    0.0000 H   0  0  0  0  0  0  0  0  0  0  0  0
    5.7895   -4.0824    0.0000 H   0  0  0  0  0  0  0  0  0  0  0  0
    6.6815    2.8824    0.0000 H   0  0  0  0  0  0  0  0  0  0  0  0
    5.8337    2.6587    0.0000 H   0  0  0  0  0  0  0  0  0  0  0  0
    6.0574    1.8109    0.0000 H   0  0  0  0  0  0  0  0  0  0  0  0
    6.0758    1.8215    0.0000 H   0  0  0  0  0  0  0  0  0  0  0  0
    5.4534    2.4391    0.0000 H   0  0  0  0  0  0  0  0  0  0  0  0
    4.8358    1.8167    0.0000 H   0  0  0  0  0  0  0  0  0  0  0  0
   10.6356    3.2633    0.0000 H   0  0  0  0  0  0  0  0  0  0  0  0
    9.9408    2.8728    0.0000 H   0  0  0  0  0  0  0  0  0  0  0  0
   10.0996    2.7103    0.0000 H   0  0  0  0  0  0  0  0  0  0  0  0
   10.5061    3.3959    0.0000 H   0  0  0  0  0  0  0  0  0  0  0  0
    2.4787   -1.2387    0.0000 H   0  0  0  0  0  0  0  0  0  0  0  0
    3.2757   -1.2295    0.0000 H   0  0  0  0  0  0  0  0  0  0  0  0
    5.1032   -2.8641    0.0000 H   0  0  0  0  0  0  0  0  0  0  0  0
    5.0940   -2.0671    0.0000 H   0  0  0  0  0  0  0  0  0  0  0  0
   11.5137    2.0225    0.0000 H   0  0  0  0  0  0  0  0  0  0  0  0
   12.1408    2.6353    0.0000 H   0  0  0  0  0  0  0  0  0  0  0  0
   11.5280    3.2624    0.0000 H   0  0  0  0  0  0  0  0  0  0  0  0
   10.5259    4.2881    0.0000 H   0  0  0  0  0  0  0  0  0  0  0  0
    9.9131    4.9152    0.0000 H   0  0  0  0  0  0  0  0  0  0  0  0
    9.2859    4.3024    0.0000 H   0  0  0  0  0  0  0  0  0  0  0  0
    2.3038    0.2713    0.0000 H   0  0  0  0  0  0  0  0  0  0  0  0
    1.4595    0.0345    0.0000 H   0  0  0  0  0  0  0  0  0  0  0  0
    1.6962   -0.8097    0.0000 H   0  0  0  0  0  0  0  0  0  0  0  0
    3.5933   -3.0391    0.0000 H   0  0  0  0  0  0  0  0  0  0  0  0
    3.8300   -3.8833    0.0000 H   0  0  0  0  0  0  0  0  0  0  0  0
    4.6742   -3.6466    0.0000 H   0  0  0  0  0  0  0  0  0  0  0  0
  1  3  1  0  0  0  0
  1  7  1  0  0  0  0
  1  8  1  0  0  0  0
  1 11  2  0  0  0  0
  2  4  1  0  0  0  0
  2  9  1  0  0  0  0
  2 10  1  0  0  0  0
  2 12  2  0  0  0  0
  3 24  1  0  0  0  0
  4 25  1  0  0  0  0
  5 27  1  0  0  0  0
  5 29  1  0  0  0  0
  6 28  1  0  0  0  0
  6 30  1  0  0  0  0
  7 31  1  0  0  0  0
  8 32  1  0  0  0  0
  9 33  1  0  0  0  0
 10 34  1  0  0  0  0
 13 14  1  0  0  0  0
 13 15  1  0  0  0  0
 13 17  1  0  0  0  0
 14 18  2  0  0  0  0
 14 19  1  0  0  0  0
 15 16  1  0  0  0  0
 15 39  1  0  0  0  0
 15 40  1  0  0  0  0
 16 18  1  0  0  0  0
 16 43  1  0  0  0  0
 16 44  1  0  0  0  0
 17 20  1  0  0  0  0
 17 41  1  0  0  0  0
 17 42  1  0  0  0  0
 18 22  1  0  0  0  0
 19 21  1  0  0  0  0
 19 23  2  0  0  0  0
 20 21  2  0  0  0  0
 20 24  1  0  0  0  0
 21 25  1  0  0  0  0
 22 26  2  0  0  0  0
 22 45  1  0  0  0  0
 23 26  1  0  0  0  0
 23 46  1  0  0  0  0
 24 27  2  0  0  0  0
 25 28  2  0  0  0  0
 26 47  1  0  0  0  0
 27 28  1  0  0  0  0
 29 48  1  0  0  0  0
 29 49  1  0  0  0  0
 29 50  1  0  0  0  0
 30 51  1  0  0  0  0
 30 52  1  0  0  0  0
 30 53  1  0  0  0  0
 31 35  1  0  0  0  0
 31 54  1  0  0  0  0
 31 55  1  0  0  0  0
 32 36  1  0  0  0  0
 32 56  1  0  0  0  0
 32 57  1  0  0  0  0
 33 37  1  0  0  0  0
 33 58  1  0  0  0  0
 33 59  1  0  0  0  0
 34 38  1  0  0  0  0
 34 60  1  0  0  0  0
 34 61  1  0  0  0  0
 35 62  1  0  0  0  0
 35 63  1  0  0  0  0
 35 64  1  0  0  0  0
 36 65  1  0  0  0  0
 36 66  1  0  0  0  0
 36 67  1  0  0  0  0
 37 68  1  0  0  0  0
 37 69  1  0  0  0  0
 37 70  1  0  0  0  0
 38 71  1  0  0  0  0
 38 72  1  0  0  0  0
 38 73  1  0  0  0  0
M  END
> <PUBCHEM_COMPOUND_CID>
10816899

> <PUBCHEM_COMPOUND_CANONICALIZED>
1

> <PUBCHEM_CACTVS_COMPLEXITY>
844

> <PUBCHEM_CACTVS_HBOND_ACCEPTOR>
11

> <PUBCHEM_CACTVS_HBOND_DONOR>
0

> <PUBCHEM_CACTVS_ROTATABLE_BOND>
14

> <PUBCHEM_CACTVS_SUBSKEYS>
AAADcfB6PAMAAAAAAAAAAAAAAAAAAWAAAAA8YIAAAAAAAFixQAAAHgAAACAADAzhmAYyxoMABRCAQiRCQICCCAAhIAAIiAAMzIgNJyLEsZuEMCpnwBXK6Afw8P8OoQADCAAaQABCAAYQADSAAAAAAAAAAA==

> <PUBCHEM_IUPAC_OPENEYE_NAME>
(3-diethoxyphosphoryloxy-4,5-dimethoxy-9-azatetracyclo[7.6.1.02,7.012,16]hexadeca-1(15),2(7),3,5,12(16),13-hexaen-6-yl) diethyl phosphate

> <PUBCHEM_IUPAC_CAS_NAME>
phosphoric acid (3-diethoxyphosphoryloxy-4,5-dimethoxy-9-azatetracyclo[7.6.1.02,7.012,16]hexadeca-1(15),2(7),3,5,12(16),13-hexaen-6-yl) diethyl ester

> <PUBCHEM_IUPAC_NAME_MARKUP>
(3-diethoxyphosphoryloxy-4,5-dimethoxy-9-azatetracyclo[7.6.1.0<SUP>2,7</SUP>.0<SUP>12,16</SUP>]hexadeca-1(15),2(7),3,5,12(16),13-hexaen-6-yl) diethyl phosphate

> <PUBCHEM_IUPAC_NAME>
(3-diethoxyphosphoryloxy-4,5-dimethoxy-9-azatetracyclo[7.6.1.02,7.012,16]hexadeca-1(15),2(7),3,5,12(16),13-hexaen-6-yl) diethyl phosphate

> <PUBCHEM_IUPAC_SYSTEMATIC_NAME>
(3-diethoxyphosphoryloxy-4,5-dimethoxy-9-azatetracyclo[7.6.1.02,7.012,16]hexadeca-1(15),2(7),3,5,12(16),13-hexaen-6-yl) diethyl phosphate

> <PUBCHEM_IUPAC_TRADITIONAL_NAME>
phosphoric acid (3-diethoxyphosphoryloxy-4,5-dimethoxy-9-azatetracyclo[7.6.1.02,7.012,16]hexadeca-1(15),2(7),3,5,12(16),13-hexaen-6-yl) diethyl ester

> <PUBCHEM_IUPAC_INCHI>
InChI=1S/C25H35NO10P2/c1-7-31-37(27,32-8-2)35-22-19-16-26-15-14-17-12-11-13-18(21(17)26)20(19)23(25(30-6)24(22)29-5)36-38(28,33-9-3)34-10-4/h11-13H,7-10,14-16H2,1-6H3

> <PUBCHEM_IUPAC_INCHIKEY>
HLJYONYAVUJRKQ-UHFFFAOYSA-N

> <PUBCHEM_XLOGP3_AA>
3.5

> <PUBCHEM_EXACT_MASS>
571.17362031

> <PUBCHEM_MOLECULAR_FORMULA>
C25H35NO10P2

> <PUBCHEM_MOLECULAR_WEIGHT>
571.5

> <PUBCHEM_OPENEYE_CAN_SMILES>
CCOP(=O)(OCC)OC1=C(C(=C(C2=C1CN3CCC4=C3C2=CC=C4)OP(=O)(OCC)OCC)OC)OC

> <PUBCHEM_OPENEYE_ISO_SMILES>
CCOP(=O)(OCC)OC1=C(C(=C(C2=C1CN3CCC4=C3C2=CC=C4)OP(=O)(OCC)OCC)OC)OC

> <PUBCHEM_CACTVS_TPSA>
111

> <PUBCHEM_MONOISOTOPIC_WEIGHT>
571.17362031

> <PUBCHEM_TOTAL_CHARGE>
0

> <PUBCHEM_HEAVY_ATOM_COUNT>
38

> <PUBCHEM_ATOM_DEF_STEREO_COUNT>
0

> <PUBCHEM_ATOM_UDEF_STEREO_COUNT>
0

> <PUBCHEM_BOND_DEF_STEREO_COUNT>
0

> <PUBCHEM_BOND_UDEF_STEREO_COUNT>
0

> <PUBCHEM_ISOTOPIC_ATOM_COUNT>
0

> <PUBCHEM_COMPONENT_COUNT>
1

> <PUBCHEM_CACTVS_TAUTO_COUNT>
-1

> <PUBCHEM_COORDINATE_TYPE>
1
5
255

> <PUBCHEM_BONDANNOTATIONS>
14  18  8
14  19  8
18  22  8
19  23  8
20  21  8
20  24  8
21  25  8
22  26  8
23  26  8
24  27  8
25  28  8
27  28  8

$$$$
