 
  -OEChem-10192103322D

 31 31  0     1  0  0  0  0  0999 V2000
    7.6092   -1.1431    0.0000 O   0  0  0  0  0  0  0  0  0  0  0  0
   11.0635   -0.5042    0.0000 O   0  0  0  0  0  0  0  0  0  0  0  0
    9.9045    0.7830    0.0000 O   0  0  0  0  0  0  0  0  0  0  0  0
    2.4608   -0.1441    0.0000 O   0  0  0  0  0  0  0  0  0  0  0  0
    3.6197    1.1431    0.0000 O   0  0  0  0  0  0  0  0  0  0  0  0
    6.8002   -0.5553    0.0000 C   0  0  3  0  0  0  0  0  0  0  0  0
    7.1092    0.3958    0.0000 C   0  0  0  0  0  0  0  0  0  0  0  0
    8.4182   -0.5553    0.0000 C   0  0  3  0  0  0  0  0  0  0  0  0
    8.1092    0.3958    0.0000 C   0  0  0  0  0  0  0  0  0  0  0  0
    5.8492   -0.8643    0.0000 C   0  0  0  0  0  0  0  0  0  0  0  0
    9.3693   -0.8643    0.0000 C   0  0  0  0  0  0  0  0  0  0  0  0
    5.1060   -0.1952    0.0000 C   0  0  0  0  0  0  0  0  0  0  0  0
    4.1550   -0.5042    0.0000 C   0  0  0  0  0  0  0  0  0  0  0  0
   10.1124   -0.1952    0.0000 C   0  0  0  0  0  0  0  0  0  0  0  0
    3.4118    0.1649    0.0000 C   0  0  0  0  0  0  0  0  0  0  0  0
    6.7032   -1.1677    0.0000 H   0  0  0  0  0  0  0  0  0  0  0  0
    7.1740    1.0124    0.0000 H   0  0  0  0  0  0  0  0  0  0  0  0
    6.5028    0.5247    0.0000 H   0  0  0  0  0  0  0  0  0  0  0  0
    8.5152   -1.1677    0.0000 H   0  0  0  0  0  0  0  0  0  0  0  0
    8.7157    0.5247    0.0000 H   0  0  0  0  0  0  0  0  0  0  0  0
    8.0444    1.0124    0.0000 H   0  0  0  0  0  0  0  0  0  0  0  0
    5.3606   -1.2460    0.0000 H   0  0  0  0  0  0  0  0  0  0  0  0
    6.1402   -1.4117    0.0000 H   0  0  0  0  0  0  0  0  0  0  0  0
    9.0782   -1.4117    0.0000 H   0  0  0  0  0  0  0  0  0  0  0  0
    9.8579   -1.2460    0.0000 H   0  0  0  0  0  0  0  0  0  0  0  0
    5.5946    0.1865    0.0000 H   0  0  0  0  0  0  0  0  0  0  0  0
    4.8149    0.3522    0.0000 H   0  0  0  0  0  0  0  0  0  0  0  0
    3.6664   -0.8859    0.0000 H   0  0  0  0  0  0  0  0  0  0  0  0
    4.4460   -1.0516    0.0000 H   0  0  0  0  0  0  0  0  0  0  0  0
   11.5243   -0.0893    0.0000 H   0  0  0  0  0  0  0  0  0  0  0  0
    2.0000    0.2708    0.0000 H   0  0  0  0  0  0  0  0  0  0  0  0
  1  6  1  0  0  0  0
  1  8  1  0  0  0  0
  2 14  1  0  0  0  0
  2 30  1  0  0  0  0
  3 14  2  0  0  0  0
  4 15  1  0  0  0  0
  4 31  1  0  0  0  0
  5 15  2  0  0  0  0
  6  7  1  0  0  0  0
  6 10  1  0  0  0  0
  6 16  1  0  0  0  0
  7  9  1  0  0  0  0
  7 17  1  0  0  0  0
  7 18  1  0  0  0  0
  8  9  1  0  0  0  0
  8 11  1  0  0  0  0
  8 19  1  0  0  0  0
  9 20  1  0  0  0  0
  9 21  1  0  0  0  0
 10 12  1  0  0  0  0
 10 22  1  0  0  0  0
 10 23  1  0  0  0  0
 11 14  1  0  0  0  0
 11 24  1  0  0  0  0
 11 25  1  0  0  0  0
 12 13  1  0  0  0  0
 12 26  1  0  0  0  0
 12 27  1  0  0  0  0
 13 15  1  0  0  0  0
 13 28  1  0  0  0  0
 13 29  1  0  0  0  0
M  END
> <PUBCHEM_COMPOUND_CID>
13220194

> <PUBCHEM_COMPOUND_CANONICALIZED>
1

> <PUBCHEM_CACTVS_COMPLEXITY>
238

> <PUBCHEM_CACTVS_HBOND_ACCEPTOR>
5

> <PUBCHEM_CACTVS_HBOND_DONOR>
2

> <PUBCHEM_CACTVS_ROTATABLE_BOND>
6

> <PUBCHEM_CACTVS_SUBSKEYS>
AAADceBwOAAAAAAAAAAAAAAAAAAAASAAAAAAAAAAAAAAAAAAAAAAGgAACAAACBSggAIACAAABgAIAACQCAAAAAAAAAAAAAEAAAAAABYAAAACQAAFIAAAAAGI7KzAAAAAAAAAAAAAAAAAAAAAAAAAAAAAAA==

> <PUBCHEM_IUPAC_OPENEYE_NAME>
4-[5-(carboxymethyl)tetrahydrofuran-2-yl]butanoic acid

> <PUBCHEM_IUPAC_CAS_NAME>
4-[5-(carboxymethyl)-2-oxolanyl]butanoic acid

> <PUBCHEM_IUPAC_NAME_MARKUP>
4-[5-(carboxymethyl)oxolan-2-yl]butanoic acid

> <PUBCHEM_IUPAC_NAME>
4-[5-(carboxymethyl)oxolan-2-yl]butanoic acid

> <PUBCHEM_IUPAC_SYSTEMATIC_NAME>
4-[5-(2-hydroxy-2-oxoethyl)oxolan-2-yl]butanoic acid

> <PUBCHEM_IUPAC_TRADITIONAL_NAME>
4-[5-(carboxymethyl)tetrahydrofuran-2-yl]butyric acid

> <PUBCHEM_IUPAC_INCHI>
InChI=1S/C10H16O5/c11-9(12)3-1-2-7-4-5-8(15-7)6-10(13)14/h7-8H,1-6H2,(H,11,12)(H,13,14)

> <PUBCHEM_IUPAC_INCHIKEY>
CZXMBEXHCFIYPB-UHFFFAOYSA-N

> <PUBCHEM_XLOGP3_AA>
0.4

> <PUBCHEM_EXACT_MASS>
216.09977361

> <PUBCHEM_MOLECULAR_FORMULA>
C10H16O5

> <PUBCHEM_MOLECULAR_WEIGHT>
216.23

> <PUBCHEM_OPENEYE_CAN_SMILES>
C1CC(OC1CCCC(=O)O)CC(=O)O

> <PUBCHEM_OPENEYE_ISO_SMILES>
C1CC(OC1CCCC(=O)O)CC(=O)O

> <PUBCHEM_CACTVS_TPSA>
83.8

> <PUBCHEM_MONOISOTOPIC_WEIGHT>
216.09977361

> <PUBCHEM_TOTAL_CHARGE>
0

> <PUBCHEM_HEAVY_ATOM_COUNT>
15

> <PUBCHEM_ATOM_DEF_STEREO_COUNT>
0

> <PUBCHEM_ATOM_UDEF_STEREO_COUNT>
2

> <PUBCHEM_BOND_DEF_STEREO_COUNT>
0

> <PUBCHEM_BOND_UDEF_STEREO_COUNT>
0

> <PUBCHEM_ISOTOPIC_ATOM_COUNT>
0

> <PUBCHEM_COMPONENT_COUNT>
1

> <PUBCHEM_CACTVS_TAUTO_COUNT>
-1

> <PUBCHEM_COORDINATE_TYPE>
1
5
255

> <PUBCHEM_BONDANNOTATIONS>
6  10  3
8  11  3

$$$$
