 
  -OEChem-10192104412D

 33 32  0     1  0  0  0  0  0999 V2000
    7.7331   -0.6550    0.0000 S   0  0  0  0  0  0  0  0  0  0  0  0
    7.7331    0.3450    0.0000 S   0  0  0  0  0  0  0  0  0  0  0  0
    6.0010   -3.6550    0.0000 O   0  0  0  0  0  0  0  0  0  0  0  0
    9.4651    3.3450    0.0000 O   0  0  0  0  0  0  0  0  0  0  0  0
   10.3312    1.8450    0.0000 O   0  0  0  0  0  0  0  0  0  0  0  0
    2.5369   -2.6550    0.0000 O   0  0  0  0  0  0  0  0  0  0  0  0
    3.4030   -1.1550    0.0000 O   0  0  0  0  0  0  0  0  0  0  0  0
    5.1350   -2.1550    0.0000 N   0  0  0  0  0  0  0  0  0  0  0  0
    7.7331   -2.6550    0.0000 N   0  0  0  0  0  0  0  0  0  0  0  0
    7.7331    2.3450    0.0000 N   0  0  0  0  0  0  0  0  0  0  0  0
    6.8671   -2.1550    0.0000 C   0  0  1  0  0  0  0  0  0  0  0  0
    6.8671   -1.1550    0.0000 C   0  0  0  0  0  0  0  0  0  0  0  0
    8.5991    1.8450    0.0000 C   0  0  1  0  0  0  0  0  0  0  0  0
    6.0010   -2.6550    0.0000 C   0  0  0  0  0  0  0  0  0  0  0  0
    8.5991    0.8450    0.0000 C   0  0  0  0  0  0  0  0  0  0  0  0
    4.2690   -2.6550    0.0000 C   0  0  0  0  0  0  0  0  0  0  0  0
    9.4651    2.3450    0.0000 C   0  0  0  0  0  0  0  0  0  0  0  0
    3.4030   -2.1550    0.0000 C   0  0  0  0  0  0  0  0  0  0  0  0
    7.4040   -1.8450    0.0000 H   0  0  0  0  0  0  0  0  0  0  0  0
    6.6550   -0.5724    0.0000 H   0  0  0  0  0  0  0  0  0  0  0  0
    6.2565   -1.2627    0.0000 H   0  0  0  0  0  0  0  0  0  0  0  0
    8.5991    2.4650    0.0000 H   0  0  0  0  0  0  0  0  0  0  0  0
    8.8112    0.2624    0.0000 H   0  0  0  0  0  0  0  0  0  0  0  0
    9.2097    0.9527    0.0000 H   0  0  0  0  0  0  0  0  0  0  0  0
    5.1350   -1.5350    0.0000 H   0  0  0  0  0  0  0  0  0  0  0  0
    8.2700   -2.3450    0.0000 H   0  0  0  0  0  0  0  0  0  0  0  0
    7.7331   -3.2750    0.0000 H   0  0  0  0  0  0  0  0  0  0  0  0
    3.8705   -3.1300    0.0000 H   0  0  0  0  0  0  0  0  0  0  0  0
    4.6675   -3.1300    0.0000 H   0  0  0  0  0  0  0  0  0  0  0  0
    7.7331    2.9650    0.0000 H   0  0  0  0  0  0  0  0  0  0  0  0
    7.1962    2.0350    0.0000 H   0  0  0  0  0  0  0  0  0  0  0  0
   10.0021    3.6550    0.0000 H   0  0  0  0  0  0  0  0  0  0  0  0
    2.0000   -2.3450    0.0000 H   0  0  0  0  0  0  0  0  0  0  0  0
  1  2  1  0  0  0  0
  1 12  1  0  0  0  0
  2 15  1  0  0  0  0
  3 14  2  0  0  0  0
  4 17  1  0  0  0  0
  4 32  1  0  0  0  0
  5 17  2  0  0  0  0
  6 18  1  0  0  0  0
  6 33  1  0  0  0  0
  7 18  2  0  0  0  0
  8 14  1  0  0  0  0
  8 16  1  0  0  0  0
  8 25  1  0  0  0  0
 11  9  1  6  0  0  0
  9 26  1  0  0  0  0
  9 27  1  0  0  0  0
 13 10  1  6  0  0  0
 10 30  1  0  0  0  0
 10 31  1  0  0  0  0
 11 12  1  0  0  0  0
 11 14  1  0  0  0  0
 11 19  1  0  0  0  0
 12 20  1  0  0  0  0
 12 21  1  0  0  0  0
 13 15  1  0  0  0  0
 13 17  1  0  0  0  0
 13 22  1  0  0  0  0
 15 23  1  0  0  0  0
 15 24  1  0  0  0  0
 16 18  1  0  0  0  0
 16 28  1  0  0  0  0
 16 29  1  0  0  0  0
M  END
> <PUBCHEM_COMPOUND_CID>
172548

> <PUBCHEM_COMPOUND_CANONICALIZED>
1

> <PUBCHEM_CACTVS_COMPLEXITY>
315

> <PUBCHEM_CACTVS_HBOND_ACCEPTOR>
9

> <PUBCHEM_CACTVS_HBOND_DONOR>
5

> <PUBCHEM_CACTVS_ROTATABLE_BOND>
9

> <PUBCHEM_CACTVS_SUBSKEYS>
AAADccBzOABgAAAAAAAAAAAAAAAAAAAAAAAAAAAAAAAAAAAAAAAAHgQQCAAACCjFwASACALAAgAIAAGQGAAAAAAAAAAAAIGIAAACQAAAACAUQAAAFgCQAAAAAAAAAAAAAAAAAAAAAAAAAAAAAAAAAAAAAA==

> <PUBCHEM_IUPAC_OPENEYE_NAME>
(2R)-2-amino-3-[[(2R)-2-amino-3-(carboxymethylamino)-3-oxo-propyl]disulfanyl]propanoic acid

> <PUBCHEM_IUPAC_CAS_NAME>
(2R)-2-amino-3-[[(2R)-2-amino-3-(carboxymethylamino)-3-oxopropyl]disulfanyl]propanoic acid

> <PUBCHEM_IUPAC_NAME_MARKUP>
(2<I>R</I>)-2-amino-3-[[(2<I>R</I>)-2-amino-3-(carboxymethylamino)-3-oxopropyl]disulfanyl]propanoic acid

> <PUBCHEM_IUPAC_NAME>
(2R)-2-amino-3-[[(2R)-2-amino-3-(carboxymethylamino)-3-oxopropyl]disulfanyl]propanoic acid

> <PUBCHEM_IUPAC_SYSTEMATIC_NAME>
(2R)-2-azanyl-3-[[(2R)-2-azanyl-3-(2-hydroxy-2-oxoethylamino)-3-oxidanylidene-propyl]disulfanyl]propanoic acid

> <PUBCHEM_IUPAC_TRADITIONAL_NAME>
(2R)-2-amino-3-[[(2R)-2-amino-3-(carboxymethylamino)-3-keto-propyl]disulfanyl]propionic acid

> <PUBCHEM_IUPAC_INCHI>
InChI=1S/C8H15N3O5S2/c9-4(7(14)11-1-6(12)13)2-17-18-3-5(10)8(15)16/h4-5H,1-3,9-10H2,(H,11,14)(H,12,13)(H,15,16)/t4-,5-/m0/s1

> <PUBCHEM_IUPAC_INCHIKEY>
ZHRLECIZINSPKL-WHFBIAKZSA-N

> <PUBCHEM_XLOGP3_AA>
-6.9

> <PUBCHEM_EXACT_MASS>
297.04531293

> <PUBCHEM_MOLECULAR_FORMULA>
C8H15N3O5S2

> <PUBCHEM_MOLECULAR_WEIGHT>
297.4

> <PUBCHEM_OPENEYE_CAN_SMILES>
C(C(C(=O)NCC(=O)O)N)SSCC(C(=O)O)N

> <PUBCHEM_OPENEYE_ISO_SMILES>
C([C@@H](C(=O)NCC(=O)O)N)SSC[C@@H](C(=O)O)N

> <PUBCHEM_CACTVS_TPSA>
206

> <PUBCHEM_MONOISOTOPIC_WEIGHT>
297.04531293

> <PUBCHEM_TOTAL_CHARGE>
0

> <PUBCHEM_HEAVY_ATOM_COUNT>
18

> <PUBCHEM_ATOM_DEF_STEREO_COUNT>
2

> <PUBCHEM_ATOM_UDEF_STEREO_COUNT>
0

> <PUBCHEM_BOND_DEF_STEREO_COUNT>
0

> <PUBCHEM_BOND_UDEF_STEREO_COUNT>
0

> <PUBCHEM_ISOTOPIC_ATOM_COUNT>
0

> <PUBCHEM_COMPONENT_COUNT>
1

> <PUBCHEM_CACTVS_TAUTO_COUNT>
2

> <PUBCHEM_COORDINATE_TYPE>
1
5
255

> <PUBCHEM_BONDANNOTATIONS>
13  10  6
11  9  6

$$$$
