 
  -OEChem-10192103412D

 79 80  0     1  0  0  0  0  0999 V2000
   11.5263   -2.5950    0.0000 O   0  0  0  0  0  0  0  0  0  0  0  0
   10.6603   -1.0950    0.0000 O   0  0  0  0  0  0  0  0  0  0  0  0
    9.7942   -2.5950    0.0000 O   0  0  0  0  0  0  0  0  0  0  0  0
   13.2583   -1.5950    0.0000 O   0  0  0  0  0  0  0  0  0  0  0  0
   11.5263   -4.5950    0.0000 O   0  0  0  0  0  0  0  0  0  0  0  0
   13.2583    0.4050    0.0000 O   0  0  0  0  0  0  0  0  0  0  0  0
    9.7942   -5.5950    0.0000 O   0  0  0  0  0  0  0  0  0  0  0  0
   11.5263    1.4050    0.0000 O   0  0  0  0  0  0  0  0  0  0  0  0
    8.0622   -4.5950    0.0000 O   0  0  0  0  0  0  0  0  0  0  0  0
    9.7942    1.4050    0.0000 O   0  0  0  0  0  0  0  0  0  0  0  0
    7.1962   -3.0950    0.0000 O   0  0  0  0  0  0  0  0  0  0  0  0
    8.0622    1.4050    0.0000 O   0  0  0  0  0  0  0  0  0  0  0  0
    6.3301   -1.5950    0.0000 O   0  0  0  0  0  0  0  0  0  0  0  0
   11.5263   -1.5950    0.0000 C   0  0  1  0  0  0  0  0  0  0  0  0
   10.6603   -3.0950    0.0000 C   0  0  1  0  0  0  0  0  0  0  0  0
   12.3923   -1.0950    0.0000 C   0  0  1  0  0  0  0  0  0  0  0  0
   10.6603   -4.0950    0.0000 C   0  0  1  0  0  0  0  0  0  0  0  0
   12.3923   -0.0950    0.0000 C   0  0  2  0  0  0  0  0  0  0  0  0
    9.7942   -4.5950    0.0000 C   0  0  2  0  0  0  0  0  0  0  0  0
   11.5263    0.4050    0.0000 C   0  0  1  0  0  0  0  0  0  0  0  0
    8.9282   -4.0950    0.0000 C   0  0  1  0  0  0  0  0  0  0  0  0
   10.6603   -0.0950    0.0000 C   0  0  1  0  0  0  0  0  0  0  0  0
    8.9282   -3.0950    0.0000 C   0  0  1  0  0  0  0  0  0  0  0  0
    9.7942    0.4050    0.0000 C   0  0  0  0  0  0  0  0  0  0  0  0
    8.0622   -2.5950    0.0000 C   0  0  0  0  0  0  0  0  0  0  0  0
    8.9282    1.9050    0.0000 C   0  0  0  0  0  0  0  0  0  0  0  0
    6.3301   -2.5950    0.0000 C   0  0  0  0  0  0  0  0  0  0  0  0
    8.9282    2.9050    0.0000 C   0  0  0  0  0  0  0  0  0  0  0  0
    5.4641   -3.0950    0.0000 C   0  0  0  0  0  0  0  0  0  0  0  0
    8.0622    3.4050    0.0000 C   0  0  0  0  0  0  0  0  0  0  0  0
    4.5981   -2.5950    0.0000 C   0  0  0  0  0  0  0  0  0  0  0  0
    8.0622    4.4050    0.0000 C   0  0  0  0  0  0  0  0  0  0  0  0
    3.7320   -3.0950    0.0000 C   0  0  0  0  0  0  0  0  0  0  0  0
    7.1962    4.9050    0.0000 C   0  0  0  0  0  0  0  0  0  0  0  0
    2.8660   -2.5950    0.0000 C   0  0  0  0  0  0  0  0  0  0  0  0
    7.1962    5.9050    0.0000 C   0  0  0  0  0  0  0  0  0  0  0  0
    2.0000   -3.0950    0.0000 C   0  0  0  0  0  0  0  0  0  0  0  0
   10.9893   -1.9050    0.0000 H   0  0  0  0  0  0  0  0  0  0  0  0
   11.1972   -3.4050    0.0000 H   0  0  0  0  0  0  0  0  0  0  0  0
   12.9292   -0.7850    0.0000 H   0  0  0  0  0  0  0  0  0  0  0  0
   10.6603   -4.7150    0.0000 H   0  0  0  0  0  0  0  0  0  0  0  0
   12.3923    0.5250    0.0000 H   0  0  0  0  0  0  0  0  0  0  0  0
   10.3312   -4.9050    0.0000 H   0  0  0  0  0  0  0  0  0  0  0  0
   10.9893    0.7150    0.0000 H   0  0  0  0  0  0  0  0  0  0  0  0
    8.9282   -4.7150    0.0000 H   0  0  0  0  0  0  0  0  0  0  0  0
   10.1233   -0.4050    0.0000 H   0  0  0  0  0  0  0  0  0  0  0  0
    8.9282   -2.4750    0.0000 H   0  0  0  0  0  0  0  0  0  0  0  0
    9.1836    0.5127    0.0000 H   0  0  0  0  0  0  0  0  0  0  0  0
    9.5822   -0.1776    0.0000 H   0  0  0  0  0  0  0  0  0  0  0  0
    8.4607   -2.1200    0.0000 H   0  0  0  0  0  0  0  0  0  0  0  0
    7.6636   -2.1200    0.0000 H   0  0  0  0  0  0  0  0  0  0  0  0
   13.7953   -1.2850    0.0000 H   0  0  0  0  0  0  0  0  0  0  0  0
   11.5263   -5.2150    0.0000 H   0  0  0  0  0  0  0  0  0  0  0  0
   13.2583    1.0250    0.0000 H   0  0  0  0  0  0  0  0  0  0  0  0
    9.2573   -5.9050    0.0000 H   0  0  0  0  0  0  0  0  0  0  0  0
   12.0632    1.7150    0.0000 H   0  0  0  0  0  0  0  0  0  0  0  0
    8.0622   -5.2150    0.0000 H   0  0  0  0  0  0  0  0  0  0  0  0
    9.5388    2.7973    0.0000 H   0  0  0  0  0  0  0  0  0  0  0  0
    9.1403    3.4876    0.0000 H   0  0  0  0  0  0  0  0  0  0  0  0
    5.0656   -3.5700    0.0000 H   0  0  0  0  0  0  0  0  0  0  0  0
    5.8626   -3.5700    0.0000 H   0  0  0  0  0  0  0  0  0  0  0  0
    7.4516    3.5127    0.0000 H   0  0  0  0  0  0  0  0  0  0  0  0
    7.8501    2.8224    0.0000 H   0  0  0  0  0  0  0  0  0  0  0  0
    4.9966   -2.1200    0.0000 H   0  0  0  0  0  0  0  0  0  0  0  0
    4.1996   -2.1200    0.0000 H   0  0  0  0  0  0  0  0  0  0  0  0
    8.6728    4.2973    0.0000 H   0  0  0  0  0  0  0  0  0  0  0  0
    8.2742    4.9876    0.0000 H   0  0  0  0  0  0  0  0  0  0  0  0
    3.3335   -3.5700    0.0000 H   0  0  0  0  0  0  0  0  0  0  0  0
    4.1306   -3.5700    0.0000 H   0  0  0  0  0  0  0  0  0  0  0  0
    6.5856    5.0127    0.0000 H   0  0  0  0  0  0  0  0  0  0  0  0
    6.9841    4.3224    0.0000 H   0  0  0  0  0  0  0  0  0  0  0  0
    3.2646   -2.1200    0.0000 H   0  0  0  0  0  0  0  0  0  0  0  0
    2.4675   -2.1200    0.0000 H   0  0  0  0  0  0  0  0  0  0  0  0
    7.8162    5.9050    0.0000 H   0  0  0  0  0  0  0  0  0  0  0  0
    7.1962    6.5250    0.0000 H   0  0  0  0  0  0  0  0  0  0  0  0
    6.5762    5.9050    0.0000 H   0  0  0  0  0  0  0  0  0  0  0  0
    1.6900   -2.5581    0.0000 H   0  0  0  0  0  0  0  0  0  0  0  0
    1.4631   -3.4050    0.0000 H   0  0  0  0  0  0  0  0  0  0  0  0
    2.3100   -3.6319    0.0000 H   0  0  0  0  0  0  0  0  0  0  0  0
 14  1  1  1  0  0  0
 15  1  1  6  0  0  0
  2 14  1  0  0  0  0
  2 22  1  0  0  0  0
  3 15  1  0  0  0  0
  3 23  1  0  0  0  0
 16  4  1  1  0  0  0
  4 52  1  0  0  0  0
 17  5  1  6  0  0  0
  5 53  1  0  0  0  0
 18  6  1  6  0  0  0
  6 54  1  0  0  0  0
 19  7  1  1  0  0  0
  7 55  1  0  0  0  0
 20  8  1  1  0  0  0
  8 56  1  0  0  0  0
 21  9  1  6  0  0  0
  9 57  1  0  0  0  0
 10 24  1  0  0  0  0
 10 26  1  0  0  0  0
 11 25  1  0  0  0  0
 11 27  1  0  0  0  0
 12 26  2  0  0  0  0
 13 27  2  0  0  0  0
 14 16  1  0  0  0  0
 14 38  1  0  0  0  0
 15 17  1  0  0  0  0
 15 39  1  0  0  0  0
 16 18  1  0  0  0  0
 16 40  1  0  0  0  0
 17 19  1  0  0  0  0
 17 41  1  0  0  0  0
 18 20  1  0  0  0  0
 18 42  1  0  0  0  0
 19 21  1  0  0  0  0
 19 43  1  0  0  0  0
 20 22  1  0  0  0  0
 20 44  1  0  0  0  0
 21 23  1  0  0  0  0
 21 45  1  0  0  0  0
 22 24  1  6  0  0  0
 22 46  1  0  0  0  0
 23 25  1  1  0  0  0
 23 47  1  0  0  0  0
 24 48  1  0  0  0  0
 24 49  1  0  0  0  0
 25 50  1  0  0  0  0
 25 51  1  0  0  0  0
 26 28  1  0  0  0  0
 27 29  1  0  0  0  0
 28 30  1  0  0  0  0
 28 58  1  0  0  0  0
 28 59  1  0  0  0  0
 29 31  1  0  0  0  0
 29 60  1  0  0  0  0
 29 61  1  0  0  0  0
 30 32  1  0  0  0  0
 30 62  1  0  0  0  0
 30 63  1  0  0  0  0
 31 33  1  0  0  0  0
 31 64  1  0  0  0  0
 31 65  1  0  0  0  0
 32 34  1  0  0  0  0
 32 66  1  0  0  0  0
 32 67  1  0  0  0  0
 33 35  1  0  0  0  0
 33 68  1  0  0  0  0
 33 69  1  0  0  0  0
 34 36  1  0  0  0  0
 34 70  1  0  0  0  0
 34 71  1  0  0  0  0
 35 37  1  0  0  0  0
 35 72  1  0  0  0  0
 35 73  1  0  0  0  0
 36 74  1  0  0  0  0
 36 75  1  0  0  0  0
 36 76  1  0  0  0  0
 37 77  1  0  0  0  0
 37 78  1  0  0  0  0
 37 79  1  0  0  0  0
M  END
> <PUBCHEM_COMPOUND_CID>
49873667

> <PUBCHEM_COMPOUND_CANONICALIZED>
1

> <PUBCHEM_CACTVS_COMPLEXITY>
636

> <PUBCHEM_CACTVS_HBOND_ACCEPTOR>
13

> <PUBCHEM_CACTVS_HBOND_DONOR>
6

> <PUBCHEM_CACTVS_ROTATABLE_BOND>
16

> <PUBCHEM_CACTVS_SUBSKEYS>
AAADcfB4PAAAAAAAAAAAAAAAAAAAAAAAAAAkSAAAAAAAAAAAAAAAGgAACAAACBSwgAMCCAAABgAIAACQCAAAAAAAAAAAAAEAAAAREBIAAAAiQAAFAAAHAAHIaAwAAAAAAAAAAAAAAAAAAAAAAAAAAAAAAA==

> <PUBCHEM_IUPAC_OPENEYE_NAME>
[(2R,3S,4S,5R,6R)-6-[(2R,3R,4S,5S,6R)-6-(hexanoyloxymethyl)-3,4,5-trihydroxy-tetrahydropyran-2-yl]oxy-3,4,5-trihydroxy-tetrahydropyran-2-yl]methyl hexanoate

> <PUBCHEM_IUPAC_CAS_NAME>
hexanoic acid [(2R,3S,4S,5R,6R)-3,4,5-trihydroxy-6-[[(2R,3R,4S,5S,6R)-3,4,5-trihydroxy-6-(1-oxohexoxymethyl)-2-oxanyl]oxy]-2-oxanyl]methyl ester

> <PUBCHEM_IUPAC_NAME_MARKUP>
[(2<I>R</I>,3<I>S</I>,4<I>S</I>,5<I>R</I>,6<I>R</I>)-6-[(2<I>R</I>,3<I>R</I>,4<I>S</I>,5<I>S</I>,6<I>R</I>)-6-(hexanoyloxymethyl)-3,4,5-trihydroxyoxan-2-yl]oxy-3,4,5-trihydroxyoxan-2-yl]methyl hexanoate

> <PUBCHEM_IUPAC_NAME>
[(2R,3S,4S,5R,6R)-6-[(2R,3R,4S,5S,6R)-6-(hexanoyloxymethyl)-3,4,5-trihydroxyoxan-2-yl]oxy-3,4,5-trihydroxyoxan-2-yl]methyl hexanoate

> <PUBCHEM_IUPAC_SYSTEMATIC_NAME>
[(2R,3S,4S,5R,6R)-6-[(2R,3R,4S,5S,6R)-6-(hexanoyloxymethyl)-3,4,5-tris(oxidanyl)oxan-2-yl]oxy-3,4,5-tris(oxidanyl)oxan-2-yl]methyl hexanoate

> <PUBCHEM_IUPAC_TRADITIONAL_NAME>
hexanoic acid [(2R,3S,4S,5R,6R)-6-[(2R,3R,4S,5S,6R)-6-(caproyloxymethyl)-3,4,5-trihydroxy-tetrahydropyran-2-yl]oxy-3,4,5-trihydroxy-tetrahydropyran-2-yl]methyl ester

> <PUBCHEM_IUPAC_INCHI>
InChI=1S/C24H42O13/c1-3-5-7-9-15(25)33-11-13-17(27)19(29)21(31)23(35-13)37-24-22(32)20(30)18(28)14(36-24)12-34-16(26)10-8-6-4-2/h13-14,17-24,27-32H,3-12H2,1-2H3/t13-,14-,17-,18-,19+,20+,21-,22-,23-,24-/m1/s1

> <PUBCHEM_IUPAC_INCHIKEY>
BXGUYKBNJJYYMX-DRKGPFKDSA-N

> <PUBCHEM_XLOGP3_AA>
-0.3

> <PUBCHEM_EXACT_MASS>
538.26254139

> <PUBCHEM_MOLECULAR_FORMULA>
C24H42O13

> <PUBCHEM_MOLECULAR_WEIGHT>
538.6

> <PUBCHEM_OPENEYE_CAN_SMILES>
CCCCCC(=O)OCC1C(C(C(C(O1)OC2C(C(C(C(O2)COC(=O)CCCCC)O)O)O)O)O)O

> <PUBCHEM_OPENEYE_ISO_SMILES>
CCCCCC(=O)OC[C@@H]1[C@H]([C@@H]([C@H]([C@H](O1)O[C@@H]2[C@@H]([C@H]([C@@H]([C@H](O2)COC(=O)CCCCC)O)O)O)O)O)O

> <PUBCHEM_CACTVS_TPSA>
202

> <PUBCHEM_MONOISOTOPIC_WEIGHT>
538.26254139

> <PUBCHEM_TOTAL_CHARGE>
0

> <PUBCHEM_HEAVY_ATOM_COUNT>
37

> <PUBCHEM_ATOM_DEF_STEREO_COUNT>
10

> <PUBCHEM_ATOM_UDEF_STEREO_COUNT>
0

> <PUBCHEM_BOND_DEF_STEREO_COUNT>
0

> <PUBCHEM_BOND_UDEF_STEREO_COUNT>
0

> <PUBCHEM_ISOTOPIC_ATOM_COUNT>
0

> <PUBCHEM_COMPONENT_COUNT>
1

> <PUBCHEM_CACTVS_TAUTO_COUNT>
-1

> <PUBCHEM_COORDINATE_TYPE>
1
5
255

> <PUBCHEM_BONDANNOTATIONS>
14  1  5
15  1  6
22  24  6
23  25  5
16  4  5
17  5  6
18  6  6
19  7  5
20  8  5
21  9  6

$$$$
