 
  -OEChem-10192104112D

 59 62  0     1  0  0  0  0  0999 V2000
    5.1350   -2.0658    0.0000 O   0  0  0  0  0  0  0  0  0  0  0  0
    6.8671   -2.0658    0.0000 O   0  0  0  0  0  0  0  0  0  0  0  0
    5.1350   -5.0658    0.0000 O   0  0  0  0  0  0  0  0  0  0  0  0
    3.4030   -4.0658    0.0000 O   0  0  0  0  0  0  0  0  0  0  0  0
    6.8671   -4.0658    0.0000 O   0  0  0  0  0  0  0  0  0  0  0  0
    2.5369   -2.5658    0.0000 O   0  0  0  0  0  0  0  0  0  0  0  0
    8.6370   -1.0349    0.0000 O   0  0  0  0  0  0  0  0  0  0  0  0
    9.4871    0.4933    0.0000 O   0  0  0  0  0  0  0  0  0  0  0  0
    6.0308    2.5067    0.0000 O   0  0  0  0  0  0  0  0  0  0  0  0
   10.3970    1.9867    0.0000 O   0  0  0  0  0  0  0  0  0  0  0  0
   10.4207    4.0349    0.0000 O   0  0  0  0  0  0  0  0  0  0  0  0
    8.6508    5.0658    0.0000 O   0  0  0  0  0  0  0  0  0  0  0  0
    5.1350   -4.0658    0.0000 C   0  0  1  0  0  0  0  0  0  0  0  0
    4.2690   -3.5658    0.0000 C   0  0  1  0  0  0  0  0  0  0  0  0
    6.0010   -3.5658    0.0000 C   0  0  2  0  0  0  0  0  0  0  0  0
    4.2690   -2.5658    0.0000 C   0  0  1  0  0  0  0  0  0  0  0  0
    6.0010   -2.5658    0.0000 C   0  0  1  0  0  0  0  0  0  0  0  0
    3.4030   -2.0658    0.0000 C   0  0  0  0  0  0  0  0  0  0  0  0
    6.8671   -1.0658    0.0000 C   0  0  0  0  0  0  0  0  0  0  0  0
    7.7671   -0.5416    0.0000 C   0  0  0  0  0  0  0  0  0  0  0  0
    5.9670   -0.5416    0.0000 C   0  0  0  0  0  0  0  0  0  0  0  0
    7.7551    0.5000    0.0000 C   0  0  0  0  0  0  0  0  0  0  0  0
    6.8910    1.0033    0.0000 C   0  0  0  0  0  0  0  0  0  0  0  0
    5.9790    0.5000    0.0000 C   0  0  0  0  0  0  0  0  0  0  0  0
    8.6230    0.9967    0.0000 C   0  0  0  0  0  0  0  0  0  0  0  0
    8.6269    1.9967    0.0000 C   0  0  0  0  0  0  0  0  0  0  0  0
    6.8948    2.0033    0.0000 C   0  0  0  0  0  0  0  0  0  0  0  0
    7.7628    2.5000    0.0000 C   0  0  0  0  0  0  0  0  0  0  0  0
    5.0971   -1.0349    0.0000 C   0  0  0  0  0  0  0  0  0  0  0  0
    9.5388    2.5000    0.0000 C   0  0  0  0  0  0  0  0  0  0  0  0
    7.7508    3.5416    0.0000 C   0  0  0  0  0  0  0  0  0  0  0  0
    9.5509    3.5416    0.0000 C   0  0  0  0  0  0  0  0  0  0  0  0
    8.6508    4.0658    0.0000 C   0  0  0  0  0  0  0  0  0  0  0  0
    8.6447   -2.0348    0.0000 C   0  0  0  0  0  0  0  0  0  0  0  0
   10.4284    5.0348    0.0000 C   0  0  0  0  0  0  0  0  0  0  0  0
    5.6720   -4.3758    0.0000 H   0  0  0  0  0  0  0  0  0  0  0  0
    3.7320   -3.2558    0.0000 H   0  0  0  0  0  0  0  0  0  0  0  0
    6.5380   -3.2558    0.0000 H   0  0  0  0  0  0  0  0  0  0  0  0
    4.2690   -1.9458    0.0000 H   0  0  0  0  0  0  0  0  0  0  0  0
    6.0010   -1.9458    0.0000 H   0  0  0  0  0  0  0  0  0  0  0  0
    3.8015   -1.5909    0.0000 H   0  0  0  0  0  0  0  0  0  0  0  0
    3.0044   -1.5909    0.0000 H   0  0  0  0  0  0  0  0  0  0  0  0
    4.5981   -5.3758    0.0000 H   0  0  0  0  0  0  0  0  0  0  0  0
    3.4030   -4.6858    0.0000 H   0  0  0  0  0  0  0  0  0  0  0  0
    6.8671   -4.6858    0.0000 H   0  0  0  0  0  0  0  0  0  0  0  0
    5.4470    0.8182    0.0000 H   0  0  0  0  0  0  0  0  0  0  0  0
    2.0000   -2.2558    0.0000 H   0  0  0  0  0  0  0  0  0  0  0  0
    4.7913   -0.4956    0.0000 H   0  0  0  0  0  0  0  0  0  0  0  0
    4.5578   -1.3407    0.0000 H   0  0  0  0  0  0  0  0  0  0  0  0
    5.4030   -1.5742    0.0000 H   0  0  0  0  0  0  0  0  0  0  0  0
    7.2114    3.8474    0.0000 H   0  0  0  0  0  0  0  0  0  0  0  0
    8.0247   -2.0396    0.0000 H   0  0  0  0  0  0  0  0  0  0  0  0
    8.6495   -2.6548    0.0000 H   0  0  0  0  0  0  0  0  0  0  0  0
    9.2647   -2.0300    0.0000 H   0  0  0  0  0  0  0  0  0  0  0  0
   10.9387    2.2884    0.0000 H   0  0  0  0  0  0  0  0  0  0  0  0
    8.1139    5.3758    0.0000 H   0  0  0  0  0  0  0  0  0  0  0  0
   11.0484    5.0300    0.0000 H   0  0  0  0  0  0  0  0  0  0  0  0
   10.4332    5.6548    0.0000 H   0  0  0  0  0  0  0  0  0  0  0  0
    9.8085    5.0396    0.0000 H   0  0  0  0  0  0  0  0  0  0  0  0
  1 16  1  0  0  0  0
  1 17  1  0  0  0  0
 17  2  1  1  0  0  0
  2 19  1  0  0  0  0
 13  3  1  1  0  0  0
  3 43  1  0  0  0  0
 14  4  1  6  0  0  0
  4 44  1  0  0  0  0
 15  5  1  6  0  0  0
  5 45  1  0  0  0  0
  6 18  1  0  0  0  0
  6 47  1  0  0  0  0
  7 20  1  0  0  0  0
  7 34  1  0  0  0  0
  8 25  2  0  0  0  0
  9 27  2  0  0  0  0
 10 30  1  0  0  0  0
 10 55  1  0  0  0  0
 11 32  1  0  0  0  0
 11 35  1  0  0  0  0
 12 33  1  0  0  0  0
 12 56  1  0  0  0  0
 13 14  1  0  0  0  0
 13 15  1  0  0  0  0
 13 36  1  0  0  0  0
 14 16  1  0  0  0  0
 14 37  1  0  0  0  0
 15 17  1  0  0  0  0
 15 38  1  0  0  0  0
 16 18  1  1  0  0  0
 16 39  1  0  0  0  0
 17 40  1  0  0  0  0
 18 41  1  0  0  0  0
 18 42  1  0  0  0  0
 19 20  2  0  0  0  0
 19 21  1  0  0  0  0
 20 22  1  0  0  0  0
 21 24  2  0  0  0  0
 21 29  1  0  0  0  0
 22 23  2  0  0  0  0
 22 25  1  0  0  0  0
 23 24  1  0  0  0  0
 23 27  1  0  0  0  0
 24 46  1  0  0  0  0
 25 26  1  0  0  0  0
 26 28  1  0  0  0  0
 26 30  2  0  0  0  0
 27 28  1  0  0  0  0
 28 31  2  0  0  0  0
 29 48  1  0  0  0  0
 29 49  1  0  0  0  0
 29 50  1  0  0  0  0
 30 32  1  0  0  0  0
 31 33  1  0  0  0  0
 31 51  1  0  0  0  0
 32 33  2  0  0  0  0
 34 52  1  0  0  0  0
 34 53  1  0  0  0  0
 34 54  1  0  0  0  0
 35 57  1  0  0  0  0
 35 58  1  0  0  0  0
 35 59  1  0  0  0  0
M  END
> <PUBCHEM_COMPOUND_CID>
102347212

> <PUBCHEM_COMPOUND_CANONICALIZED>
1

> <PUBCHEM_CACTVS_COMPLEXITY>
793

> <PUBCHEM_CACTVS_HBOND_ACCEPTOR>
12

> <PUBCHEM_CACTVS_HBOND_DONOR>
6

> <PUBCHEM_CACTVS_ROTATABLE_BOND>
5

> <PUBCHEM_CACTVS_SUBSKEYS>
AAADceB4PAAAAAAAAAAAAAAAAAAAAAAAAAA0YMEAAAAAAADBQAAAGgAACAAADBSwmAMyDoAABgCIAqBSAAACCAAkIAAAiAEGiMgdNzaGNRqieWOl4BUPuYfL7PzO4AADCAAYQADAAAYQADCAAAAAAAAAAA==

> <PUBCHEM_IUPAC_OPENEYE_NAME>
1,3-dihydroxy-2,8-dimethoxy-6-methyl-7-[(2S,3R,4S,5S,6R)-3,4,5-trihydroxy-6-(hydroxymethyl)tetrahydropyran-2-yl]oxy-anthracene-9,10-dione

> <PUBCHEM_IUPAC_CAS_NAME>
1,3-dihydroxy-2,8-dimethoxy-6-methyl-7-[[(2S,3R,4S,5S,6R)-3,4,5-trihydroxy-6-(hydroxymethyl)-2-oxanyl]oxy]anthracene-9,10-dione

> <PUBCHEM_IUPAC_NAME_MARKUP>
1,3-dihydroxy-2,8-dimethoxy-6-methyl-7-[(2<I>S</I>,3<I>R</I>,4<I>S</I>,5<I>S</I>,6<I>R</I>)-3,4,5-trihydroxy-6-(hydroxymethyl)oxan-2-yl]oxyanthracene-9,10-dione

> <PUBCHEM_IUPAC_NAME>
1,3-dihydroxy-2,8-dimethoxy-6-methyl-7-[(2S,3R,4S,5S,6R)-3,4,5-trihydroxy-6-(hydroxymethyl)oxan-2-yl]oxyanthracene-9,10-dione

> <PUBCHEM_IUPAC_SYSTEMATIC_NAME>
2-[(2S,3R,4S,5S,6R)-6-(hydroxymethyl)-3,4,5-tris(oxidanyl)oxan-2-yl]oxy-1,7-dimethoxy-3-methyl-6,8-bis(oxidanyl)anthracene-9,10-dione

> <PUBCHEM_IUPAC_TRADITIONAL_NAME>
1,3-dihydroxy-2,8-dimethoxy-6-methyl-7-[(2S,3R,4S,5S,6R)-3,4,5-trihydroxy-6-methylol-tetrahydropyran-2-yl]oxy-9,10-anthraquinone

> <PUBCHEM_IUPAC_INCHI>
InChI=1S/C23H24O12/c1-7-4-8-13(16(28)12-9(14(8)26)5-10(25)21(32-2)17(12)29)22(33-3)20(7)35-23-19(31)18(30)15(27)11(6-24)34-23/h4-5,11,15,18-19,23-25,27,29-31H,6H2,1-3H3/t11-,15-,18+,19-,23+/m1/s1

> <PUBCHEM_IUPAC_INCHIKEY>
BYILSSCJHSNKSN-NCRIAQJOSA-N

> <PUBCHEM_XLOGP3_AA>
0.9

> <PUBCHEM_EXACT_MASS>
492.12677620

> <PUBCHEM_MOLECULAR_FORMULA>
C23H24O12

> <PUBCHEM_MOLECULAR_WEIGHT>
492.4

> <PUBCHEM_OPENEYE_CAN_SMILES>
CC1=CC2=C(C(=C1OC3C(C(C(C(O3)CO)O)O)O)OC)C(=O)C4=C(C(=C(C=C4C2=O)O)OC)O

> <PUBCHEM_OPENEYE_ISO_SMILES>
CC1=CC2=C(C(=C1O[C@H]3[C@@H]([C@H]([C@@H]([C@H](O3)CO)O)O)O)OC)C(=O)C4=C(C(=C(C=C4C2=O)O)OC)O

> <PUBCHEM_CACTVS_TPSA>
192

> <PUBCHEM_MONOISOTOPIC_WEIGHT>
492.12677620

> <PUBCHEM_TOTAL_CHARGE>
0

> <PUBCHEM_HEAVY_ATOM_COUNT>
35

> <PUBCHEM_ATOM_DEF_STEREO_COUNT>
5

> <PUBCHEM_ATOM_UDEF_STEREO_COUNT>
0

> <PUBCHEM_BOND_DEF_STEREO_COUNT>
0

> <PUBCHEM_BOND_UDEF_STEREO_COUNT>
0

> <PUBCHEM_ISOTOPIC_ATOM_COUNT>
0

> <PUBCHEM_COMPONENT_COUNT>
1

> <PUBCHEM_CACTVS_TAUTO_COUNT>
-1

> <PUBCHEM_COORDINATE_TYPE>
1
5
255

> <PUBCHEM_BONDANNOTATIONS>
16  18  5
19  20  8
19  21  8
17  2  5
20  22  8
21  24  8
22  23  8
23  24  8
26  28  8
26  30  8
28  31  8
13  3  5
30  32  8
31  33  8
32  33  8
14  4  6
15  5  6

$$$$
