 
  -OEChem-10192103572D

 77 78  0     1  0  0  0  0  0999 V2000
   10.6603   -4.5950    0.0000 O   0  0  0  0  0  0  0  0  0  0  0  0
    4.5981    5.9050    0.0000 O   0  0  0  0  0  0  0  0  0  0  0  0
    8.9282   -6.5950    0.0000 O   0  0  0  0  0  0  0  0  0  0  0  0
    7.1962    5.4050    0.0000 O   0  0  0  0  0  0  0  0  0  0  0  0
   11.5263   -6.0950    0.0000 O   0  0  0  0  0  0  0  0  0  0  0  0
    5.4641    7.4050    0.0000 O   0  0  0  0  0  0  0  0  0  0  0  0
   11.5263   -8.0950    0.0000 O   0  0  0  0  0  0  0  0  0  0  0  0
    7.1962    8.4050    0.0000 O   0  0  0  0  0  0  0  0  0  0  0  0
    5.4641   -3.5950    0.0000 O   0  0  0  0  0  0  0  0  0  0  0  0
    2.8660    0.9050    0.0000 O   0  0  0  0  0  0  0  0  0  0  0  0
    7.1962   -0.5950    0.0000 O   0  0  0  0  0  0  0  0  0  0  0  0
    6.3301    0.9050    0.0000 O   0  0  0  0  0  0  0  0  0  0  0  0
    6.3301   -5.0950    0.0000 O   0  5  0  0  0  0  0  0  0  0  0  0
    2.0000    2.4050    0.0000 O   0  5  0  0  0  0  0  0  0  0  0  0
    8.0622   -5.0950    0.0000 O   0  0  0  0  0  0  0  0  0  0  0  0
    2.8660    3.9050    0.0000 O   0  0  0  0  0  0  0  0  0  0  0  0
    6.3301   -2.0950    0.0000 N   0  0  0  0  0  0  0  0  0  0  0  0
    4.5981    0.9050    0.0000 N   0  0  0  0  0  0  0  0  0  0  0  0
    8.9282   -3.5950    0.0000 N   0  0  0  0  0  0  0  0  0  0  0  0
    4.5981    3.9050    0.0000 N   0  0  0  0  0  0  0  0  0  0  0  0
    8.0622   -2.0950    0.0000 N   0  0  0  0  0  0  0  0  0  0  0  0
    5.4641    2.4050    0.0000 N   0  0  0  0  0  0  0  0  0  0  0  0
    7.1962   -4.5950    0.0000 N   0  3  0  0  0  0  0  0  0  0  0  0
    2.8660    2.9050    0.0000 N   0  3  0  0  0  0  0  0  0  0  0  0
    9.7942   -5.0950    0.0000 C   0  0  2  0  0  0  0  0  0  0  0  0
    5.4641    5.4050    0.0000 C   0  0  2  0  0  0  0  0  0  0  0  0
    9.7942   -6.0950    0.0000 C   0  0  1  0  0  0  0  0  0  0  0  0
    6.3301    5.9050    0.0000 C   0  0  1  0  0  0  0  0  0  0  0  0
    8.9282   -4.5950    0.0000 C   0  0  0  0  0  0  0  0  0  0  0  0
    5.4641    4.4050    0.0000 C   0  0  0  0  0  0  0  0  0  0  0  0
    5.4641   -0.5950    0.0000 C   0  0  0  0  0  0  0  0  0  0  0  0
   10.6603   -6.5950    0.0000 C   0  0  1  0  0  0  0  0  0  0  0  0
    6.3301    6.9050    0.0000 C   0  0  1  0  0  0  0  0  0  0  0  0
    5.4641   -1.5950    0.0000 C   0  0  0  0  0  0  0  0  0  0  0  0
    4.5981   -0.0950    0.0000 C   0  0  0  0  0  0  0  0  0  0  0  0
    8.0622   -3.0950    0.0000 C   0  0  0  0  0  0  0  0  0  0  0  0
    4.5981    2.9050    0.0000 C   0  0  0  0  0  0  0  0  0  0  0  0
    7.1962   -3.5950    0.0000 C   0  0  0  0  0  0  0  0  0  0  0  0
    3.7320    2.4050    0.0000 C   0  0  0  0  0  0  0  0  0  0  0  0
   10.6603   -7.5950    0.0000 C   0  0  0  0  0  0  0  0  0  0  0  0
    7.1962    7.4050    0.0000 C   0  0  0  0  0  0  0  0  0  0  0  0
    6.3301   -3.0950    0.0000 C   0  0  0  0  0  0  0  0  0  0  0  0
    3.7320    1.4050    0.0000 C   0  0  0  0  0  0  0  0  0  0  0  0
    7.1962   -1.5950    0.0000 C   0  0  0  0  0  0  0  0  0  0  0  0
    5.4641    1.4050    0.0000 C   0  0  0  0  0  0  0  0  0  0  0  0
    9.7942   -4.4750    0.0000 H   0  0  0  0  0  0  0  0  0  0  0  0
    5.4641    6.0250    0.0000 H   0  0  0  0  0  0  0  0  0  0  0  0
    9.2573   -5.7850    0.0000 H   0  0  0  0  0  0  0  0  0  0  0  0
    6.8671    6.2150    0.0000 H   0  0  0  0  0  0  0  0  0  0  0  0
    8.3176   -4.4873    0.0000 H   0  0  0  0  0  0  0  0  0  0  0  0
    8.7162   -5.1776    0.0000 H   0  0  0  0  0  0  0  0  0  0  0  0
    5.6762    3.8224    0.0000 H   0  0  0  0  0  0  0  0  0  0  0  0
    6.0747    4.5127    0.0000 H   0  0  0  0  0  0  0  0  0  0  0  0
    6.0747   -0.7027    0.0000 H   0  0  0  0  0  0  0  0  0  0  0  0
    5.6762   -0.0124    0.0000 H   0  0  0  0  0  0  0  0  0  0  0  0
   11.1972   -6.9050    0.0000 H   0  0  0  0  0  0  0  0  0  0  0  0
    5.7932    6.5950    0.0000 H   0  0  0  0  0  0  0  0  0  0  0  0
    4.8535   -1.4873    0.0000 H   0  0  0  0  0  0  0  0  0  0  0  0
    5.2520   -2.1776    0.0000 H   0  0  0  0  0  0  0  0  0  0  0  0
    3.9875    0.0127    0.0000 H   0  0  0  0  0  0  0  0  0  0  0  0
    4.3860   -0.6776    0.0000 H   0  0  0  0  0  0  0  0  0  0  0  0
    9.4651   -3.2850    0.0000 H   0  0  0  0  0  0  0  0  0  0  0  0
    4.0611    4.2150    0.0000 H   0  0  0  0  0  0  0  0  0  0  0  0
   10.0497   -7.4873    0.0000 H   0  0  0  0  0  0  0  0  0  0  0  0
   10.4482   -8.1776    0.0000 H   0  0  0  0  0  0  0  0  0  0  0  0
    7.4082    6.8224    0.0000 H   0  0  0  0  0  0  0  0  0  0  0  0
    7.8067    7.5127    0.0000 H   0  0  0  0  0  0  0  0  0  0  0  0
    8.5991   -1.7850    0.0000 H   0  0  0  0  0  0  0  0  0  0  0  0
    6.0010    2.7150    0.0000 H   0  0  0  0  0  0  0  0  0  0  0  0
   11.1972   -4.9050    0.0000 H   0  0  0  0  0  0  0  0  0  0  0  0
    4.5981    6.5250    0.0000 H   0  0  0  0  0  0  0  0  0  0  0  0
    8.9282   -7.2150    0.0000 H   0  0  0  0  0  0  0  0  0  0  0  0
    7.7331    5.7150    0.0000 H   0  0  0  0  0  0  0  0  0  0  0  0
   12.0632   -6.4050    0.0000 H   0  0  0  0  0  0  0  0  0  0  0  0
    5.4641    8.0250    0.0000 H   0  0  0  0  0  0  0  0  0  0  0  0
   11.5263   -8.7150    0.0000 H   0  0  0  0  0  0  0  0  0  0  0  0
    7.7331    8.7150    0.0000 H   0  0  0  0  0  0  0  0  0  0  0  0
 25  1  1  6  0  0  0
  1 70  1  0  0  0  0
 26  2  1  6  0  0  0
  2 71  1  0  0  0  0
 27  3  1  1  0  0  0
  3 72  1  0  0  0  0
 28  4  1  1  0  0  0
  4 73  1  0  0  0  0
 32  5  1  6  0  0  0
  5 74  1  0  0  0  0
 33  6  1  6  0  0  0
  6 75  1  0  0  0  0
  7 40  1  0  0  0  0
  7 76  1  0  0  0  0
  8 41  1  0  0  0  0
  8 77  1  0  0  0  0
  9 42  2  0  0  0  0
 10 43  2  0  0  0  0
 11 44  2  0  0  0  0
 12 45  2  0  0  0  0
 13 23  1  0  0  0  0
 14 24  1  0  0  0  0
 15 23  2  0  0  0  0
 16 24  2  0  0  0  0
 17 34  1  0  0  0  0
 17 42  1  0  0  0  0
 17 44  1  0  0  0  0
 18 35  1  0  0  0  0
 18 43  1  0  0  0  0
 18 45  1  0  0  0  0
 19 29  1  0  0  0  0
 19 36  1  0  0  0  0
 19 62  1  0  0  0  0
 20 30  1  0  0  0  0
 20 37  1  0  0  0  0
 20 63  1  0  0  0  0
 21 36  1  0  0  0  0
 21 44  1  0  0  0  0
 21 68  1  0  0  0  0
 22 37  1  0  0  0  0
 22 45  1  0  0  0  0
 22 69  1  0  0  0  0
 23 38  1  0  0  0  0
 24 39  1  0  0  0  0
 25 27  1  0  0  0  0
 25 29  1  0  0  0  0
 25 46  1  0  0  0  0
 26 28  1  0  0  0  0
 26 30  1  0  0  0  0
 26 47  1  0  0  0  0
 27 32  1  0  0  0  0
 27 48  1  0  0  0  0
 28 33  1  0  0  0  0
 28 49  1  0  0  0  0
 29 50  1  0  0  0  0
 29 51  1  0  0  0  0
 30 52  1  0  0  0  0
 30 53  1  0  0  0  0
 31 34  1  0  0  0  0
 31 35  1  0  0  0  0
 31 54  1  0  0  0  0
 31 55  1  0  0  0  0
 32 40  1  0  0  0  0
 32 56  1  0  0  0  0
 33 41  1  0  0  0  0
 33 57  1  0  0  0  0
 34 58  1  0  0  0  0
 34 59  1  0  0  0  0
 35 60  1  0  0  0  0
 35 61  1  0  0  0  0
 36 38  2  0  0  0  0
 37 39  2  0  0  0  0
 38 42  1  0  0  0  0
 39 43  1  0  0  0  0
 40 64  1  0  0  0  0
 40 65  1  0  0  0  0
 41 66  1  0  0  0  0
 41 67  1  0  0  0  0
M  CHG  4  13  -1  14  -1  23   1  24   1
M  END
> <PUBCHEM_COMPOUND_CID>
11981586

> <PUBCHEM_COMPOUND_CANONICALIZED>
1

> <PUBCHEM_CACTVS_COMPLEXITY>
1140

> <PUBCHEM_CACTVS_HBOND_ACCEPTOR>
18

> <PUBCHEM_CACTVS_HBOND_DONOR>
12

> <PUBCHEM_CACTVS_ROTATABLE_BOND>
16

> <PUBCHEM_CACTVS_SUBSKEYS>
AAADcfB7/gAAAAAAAAAAAAAAAAAAAAAAAAAgQAAAAAAAAAAAAAAAHgAUCAAACBzhgAYBAAPQQgCJAAVQUwCAAAAAAAAgAICIAECDUAIAwAAUQAAPFyKRAEDwEAIAAAAAAAAAAAAAAAAAAAAAAAAAAAAAAA==

> <PUBCHEM_IUPAC_OPENEYE_NAME>
5-nitro-3-[3-[5-nitro-2,4-dioxo-6-[[(2S,3S,4R)-2,3,4,5-tetrahydroxypentyl]amino]-1H-pyrimidin-3-yl]propyl]-6-[[(2S,3S,4R)-2,3,4,5-tetrahydroxypentyl]amino]-1H-pyrimidine-2,4-dione

> <PUBCHEM_IUPAC_CAS_NAME>
5-nitro-3-[3-[5-nitro-2,4-dioxo-6-[[(2S,3S,4R)-2,3,4,5-tetrahydroxypentyl]amino]-1H-pyrimidin-3-yl]propyl]-6-[[(2S,3S,4R)-2,3,4,5-tetrahydroxypentyl]amino]-1H-pyrimidine-2,4-dione

> <PUBCHEM_IUPAC_NAME_MARKUP>
5-nitro-3-[3-[5-nitro-2,4-dioxo-6-[[(2<I>S</I>,3<I>S</I>,4<I>R</I>)-2,3,4,5-tetrahydroxypentyl]amino]-1<I>H</I>-pyrimidin-3-yl]propyl]-6-[[(2<I>S</I>,3<I>S</I>,4<I>R</I>)-2,3,4,5-tetrahydroxypentyl]amino]-1<I>H</I>-pyrimidine-2,4-dione

> <PUBCHEM_IUPAC_NAME>
5-nitro-3-[3-[5-nitro-2,4-dioxo-6-[[(2S,3S,4R)-2,3,4,5-tetrahydroxypentyl]amino]-1H-pyrimidin-3-yl]propyl]-6-[[(2S,3S,4R)-2,3,4,5-tetrahydroxypentyl]amino]-1H-pyrimidine-2,4-dione

> <PUBCHEM_IUPAC_SYSTEMATIC_NAME>
5-nitro-3-[3-[5-nitro-2,4-bis(oxidanylidene)-6-[[(2S,3S,4R)-2,3,4,5-tetrakis(oxidanyl)pentyl]amino]-1H-pyrimidin-3-yl]propyl]-6-[[(2S,3S,4R)-2,3,4,5-tetrakis(oxidanyl)pentyl]amino]-1H-pyrimidine-2,4-dione

> <PUBCHEM_IUPAC_TRADITIONAL_NAME>
3-[3-[2,4-diketo-5-nitro-6-[[(2S,3S,4R)-2,3,4,5-tetrahydroxypentyl]amino]-1H-pyrimidin-3-yl]propyl]-5-nitro-6-[[(2S,3S,4R)-2,3,4,5-tetrahydroxypentyl]amino]uracil

> <PUBCHEM_IUPAC_INCHI>
InChI=1S/C21H32N8O16/c30-6-10(34)14(36)8(32)4-22-16-12(28(42)43)18(38)26(20(40)24-16)2-1-3-27-19(39)13(29(44)45)17(25-21(27)41)23-5-9(33)15(37)11(35)7-31/h8-11,14-15,22-23,30-37H,1-7H2,(H,24,40)(H,25,41)/t8-,9-,10+,11+,14-,15-/m0/s1

> <PUBCHEM_IUPAC_INCHIKEY>
FQFULGROGWTDMZ-WWWCHNLZSA-N

> <PUBCHEM_XLOGP3_AA>
-5

> <PUBCHEM_EXACT_MASS>
652.19362696

> <PUBCHEM_MOLECULAR_FORMULA>
C21H32N8O16

> <PUBCHEM_MOLECULAR_WEIGHT>
652.5

> <PUBCHEM_OPENEYE_CAN_SMILES>
C(CN1C(=O)C(=C(NC1=O)NCC(C(C(CO)O)O)O)[N+](=O)[O-])CN2C(=O)C(=C(NC2=O)NCC(C(C(CO)O)O)O)[N+](=O)[O-]

> <PUBCHEM_OPENEYE_ISO_SMILES>
C(CN1C(=O)C(=C(NC1=O)NC[C@@H]([C@@H]([C@@H](CO)O)O)O)[N+](=O)[O-])CN2C(=O)C(=C(NC2=O)NC[C@@H]([C@@H]([C@@H](CO)O)O)O)[N+](=O)[O-]

> <PUBCHEM_CACTVS_TPSA>
376

> <PUBCHEM_MONOISOTOPIC_WEIGHT>
652.19362696

> <PUBCHEM_TOTAL_CHARGE>
0

> <PUBCHEM_HEAVY_ATOM_COUNT>
45

> <PUBCHEM_ATOM_DEF_STEREO_COUNT>
6

> <PUBCHEM_ATOM_UDEF_STEREO_COUNT>
0

> <PUBCHEM_BOND_DEF_STEREO_COUNT>
0

> <PUBCHEM_BOND_UDEF_STEREO_COUNT>
0

> <PUBCHEM_ISOTOPIC_ATOM_COUNT>
0

> <PUBCHEM_COMPONENT_COUNT>
1

> <PUBCHEM_CACTVS_TAUTO_COUNT>
-1

> <PUBCHEM_COORDINATE_TYPE>
1
5
255

> <PUBCHEM_BONDANNOTATIONS>
25  1  6
17  42  8
17  44  8
18  43  8
18  45  8
26  2  6
21  36  8
21  44  8
22  37  8
22  45  8
27  3  5
36  38  8
37  39  8
38  42  8
39  43  8
28  4  5
32  5  6
33  6  6

$$$$
