 
  -OEChem-10192104122D

 77 80  0     1  0  0  0  0  0999 V2000
    5.9019   -0.2766    0.0000 O   0  0  0  0  0  0  0  0  0  0  0  0
    3.6418    0.9834    0.0000 O   0  0  0  0  0  0  0  0  0  0  0  0
    2.5896    0.0835    0.0000 O   0  0  0  0  0  0  0  0  0  0  0  0
    3.3608   -3.8644    0.0000 O   0  0  0  0  0  0  0  0  0  0  0  0
    8.0570    3.6744    0.0000 O   0  0  0  0  0  0  0  0  0  0  0  0
    6.3249    4.6744    0.0000 O   0  0  0  0  0  0  0  0  0  0  0  0
    5.0929   -4.8644    0.0000 O   0  0  0  0  0  0  0  0  0  0  0  0
    9.7890    4.6744    0.0000 O   0  0  0  0  0  0  0  0  0  0  0  0
    9.7890    1.6744    0.0000 O   0  0  0  0  0  0  0  0  0  0  0  0
   11.5211    0.6744    0.0000 O   0  0  0  0  0  0  0  0  0  0  0  0
   13.2531    1.6744    0.0000 O   0  0  0  0  0  0  0  0  0  0  0  0
    4.5929    0.6744    0.0000 C   0  0  1  0  0  0  0  0  0  0  0  0
    4.2839   -0.2766    0.0000 C   0  0  1  0  0  0  0  0  0  0  0  0
    5.0929   -0.8644    0.0000 C   0  0  1  0  0  0  0  0  0  0  0  0
    5.5929    0.6744    0.0000 C   0  0  0  0  0  0  0  0  0  0  0  0
    4.5929    1.6744    0.0000 C   0  0  0  0  0  0  0  0  0  0  0  0
    3.3328   -0.5857    0.0000 C   0  0  0  0  0  0  0  0  0  0  0  0
    5.0929   -1.8644    0.0000 C   0  0  0  0  0  0  0  0  0  0  0  0
    5.4589    2.1744    0.0000 C   0  0  0  0  0  0  0  0  0  0  0  0
    4.2268   -2.3644    0.0000 C   0  0  0  0  0  0  0  0  0  0  0  0
    5.9589   -2.3644    0.0000 C   0  0  0  0  0  0  0  0  0  0  0  0
    5.4589    3.1744    0.0000 C   0  0  0  0  0  0  0  0  0  0  0  0
    6.3249    1.6744    0.0000 C   0  0  0  0  0  0  0  0  0  0  0  0
    4.2268   -3.3644    0.0000 C   0  0  0  0  0  0  0  0  0  0  0  0
    5.9589   -3.3644    0.0000 C   0  0  0  0  0  0  0  0  0  0  0  0
    6.3249    3.6744    0.0000 C   0  0  0  0  0  0  0  0  0  0  0  0
    7.1910    2.1744    0.0000 C   0  0  0  0  0  0  0  0  0  0  0  0
    5.0929   -3.8644    0.0000 C   0  0  0  0  0  0  0  0  0  0  0  0
    7.1910    3.1744    0.0000 C   0  0  0  0  0  0  0  0  0  0  0  0
    8.9230    3.1744    0.0000 C   0  0  3  0  0  0  0  0  0  0  0  0
    9.7890    3.6744    0.0000 C   0  0  3  0  0  0  0  0  0  0  0  0
    8.9230    2.1744    0.0000 C   0  0  0  0  0  0  0  0  0  0  0  0
    3.3608   -4.8644    0.0000 C   0  0  0  0  0  0  0  0  0  0  0  0
    5.4589    5.1744    0.0000 C   0  0  0  0  0  0  0  0  0  0  0  0
   10.6551    3.1744    0.0000 C   0  0  0  0  0  0  0  0  0  0  0  0
   10.6551    2.1744    0.0000 C   0  0  0  0  0  0  0  0  0  0  0  0
   11.5211    3.6744    0.0000 C   0  0  0  0  0  0  0  0  0  0  0  0
   11.5211    1.6744    0.0000 C   0  0  0  0  0  0  0  0  0  0  0  0
   12.3871    3.1744    0.0000 C   0  0  0  0  0  0  0  0  0  0  0  0
   12.3871    2.1744    0.0000 C   0  0  0  0  0  0  0  0  0  0  0  0
   12.3871    0.1744    0.0000 C   0  0  0  0  0  0  0  0  0  0  0  0
    3.8454    0.1618    0.0000 H   0  0  0  0  0  0  0  0  0  0  0  0
    5.6453   -1.1459    0.0000 H   0  0  0  0  0  0  0  0  0  0  0  0
    6.1993    0.8033    0.0000 H   0  0  0  0  0  0  0  0  0  0  0  0
    5.5281    1.2910    0.0000 H   0  0  0  0  0  0  0  0  0  0  0  0
    4.3808    2.2570    0.0000 H   0  0  0  0  0  0  0  0  0  0  0  0
    3.9823    1.5668    0.0000 H   0  0  0  0  0  0  0  0  0  0  0  0
    2.8442   -0.9674    0.0000 H   0  0  0  0  0  0  0  0  0  0  0  0
    3.6239   -1.1331    0.0000 H   0  0  0  0  0  0  0  0  0  0  0  0
    3.5129    1.5899    0.0000 H   0  0  0  0  0  0  0  0  0  0  0  0
    3.6899   -2.0544    0.0000 H   0  0  0  0  0  0  0  0  0  0  0  0
    6.4958   -2.0544    0.0000 H   0  0  0  0  0  0  0  0  0  0  0  0
    2.0000   -0.1081    0.0000 H   0  0  0  0  0  0  0  0  0  0  0  0
    4.9220    3.4844    0.0000 H   0  0  0  0  0  0  0  0  0  0  0  0
    6.3249    1.0544    0.0000 H   0  0  0  0  0  0  0  0  0  0  0  0
    6.4958   -3.6744    0.0000 H   0  0  0  0  0  0  0  0  0  0  0  0
    7.7279    1.8644    0.0000 H   0  0  0  0  0  0  0  0  0  0  0  0
    8.3861    2.8644    0.0000 H   0  0  0  0  0  0  0  0  0  0  0  0
   10.3260    3.9844    0.0000 H   0  0  0  0  0  0  0  0  0  0  0  0
    5.6298   -5.1744    0.0000 H   0  0  0  0  0  0  0  0  0  0  0  0
    8.3124    2.2821    0.0000 H   0  0  0  0  0  0  0  0  0  0  0  0
    8.7110    1.5918    0.0000 H   0  0  0  0  0  0  0  0  0  0  0  0
    2.7408   -4.8644    0.0000 H   0  0  0  0  0  0  0  0  0  0  0  0
    3.3608   -5.4844    0.0000 H   0  0  0  0  0  0  0  0  0  0  0  0
    3.9808   -4.8644    0.0000 H   0  0  0  0  0  0  0  0  0  0  0  0
    5.7689    5.7114    0.0000 H   0  0  0  0  0  0  0  0  0  0  0  0
    4.9220    5.4844    0.0000 H   0  0  0  0  0  0  0  0  0  0  0  0
    5.1489    4.6375    0.0000 H   0  0  0  0  0  0  0  0  0  0  0  0
   10.3260    4.9844    0.0000 H   0  0  0  0  0  0  0  0  0  0  0  0
   10.1181    1.8644    0.0000 H   0  0  0  0  0  0  0  0  0  0  0  0
   11.5211    4.2944    0.0000 H   0  0  0  0  0  0  0  0  0  0  0  0
    9.7890    1.0544    0.0000 H   0  0  0  0  0  0  0  0  0  0  0  0
   12.9240    3.4844    0.0000 H   0  0  0  0  0  0  0  0  0  0  0  0
   13.7901    1.9844    0.0000 H   0  0  0  0  0  0  0  0  0  0  0  0
   12.0771   -0.3625    0.0000 H   0  0  0  0  0  0  0  0  0  0  0  0
   12.9240   -0.1356    0.0000 H   0  0  0  0  0  0  0  0  0  0  0  0
   12.6971    0.7114    0.0000 H   0  0  0  0  0  0  0  0  0  0  0  0
  1 14  1  0  0  0  0
  1 15  1  0  0  0  0
 12  2  1  6  0  0  0
  2 50  1  0  0  0  0
  3 17  1  0  0  0  0
  3 53  1  0  0  0  0
  4 24  1  0  0  0  0
  4 33  1  0  0  0  0
  5 29  1  0  0  0  0
  5 30  1  0  0  0  0
  6 26  1  0  0  0  0
  6 34  1  0  0  0  0
  7 28  1  0  0  0  0
  7 60  1  0  0  0  0
  8 31  1  0  0  0  0
  8 69  1  0  0  0  0
  9 32  1  0  0  0  0
  9 72  1  0  0  0  0
 10 38  1  0  0  0  0
 10 41  1  0  0  0  0
 11 40  1  0  0  0  0
 11 74  1  0  0  0  0
 12 13  1  0  0  0  0
 12 15  1  0  0  0  0
 12 16  1  0  0  0  0
 13 14  1  0  0  0  0
 13 17  1  1  0  0  0
 13 42  1  0  0  0  0
 14 18  1  6  0  0  0
 14 43  1  0  0  0  0
 15 44  1  0  0  0  0
 15 45  1  0  0  0  0
 16 19  1  0  0  0  0
 16 46  1  0  0  0  0
 16 47  1  0  0  0  0
 17 48  1  0  0  0  0
 17 49  1  0  0  0  0
 18 20  2  0  0  0  0
 18 21  1  0  0  0  0
 19 22  2  0  0  0  0
 19 23  1  0  0  0  0
 20 24  1  0  0  0  0
 20 51  1  0  0  0  0
 21 25  2  0  0  0  0
 21 52  1  0  0  0  0
 22 26  1  0  0  0  0
 22 54  1  0  0  0  0
 23 27  2  0  0  0  0
 23 55  1  0  0  0  0
 24 28  2  0  0  0  0
 25 28  1  0  0  0  0
 25 56  1  0  0  0  0
 26 29  2  0  0  0  0
 27 29  1  0  0  0  0
 27 57  1  0  0  0  0
 30 31  1  0  0  0  0
 30 32  1  0  0  0  0
 30 58  1  0  0  0  0
 31 35  1  0  0  0  0
 31 59  1  0  0  0  0
 32 61  1  0  0  0  0
 32 62  1  0  0  0  0
 33 63  1  0  0  0  0
 33 64  1  0  0  0  0
 33 65  1  0  0  0  0
 34 66  1  0  0  0  0
 34 67  1  0  0  0  0
 34 68  1  0  0  0  0
 35 36  2  0  0  0  0
 35 37  1  0  0  0  0
 36 38  1  0  0  0  0
 36 70  1  0  0  0  0
 37 39  2  0  0  0  0
 37 71  1  0  0  0  0
 38 40  2  0  0  0  0
 39 40  1  0  0  0  0
 39 73  1  0  0  0  0
 41 75  1  0  0  0  0
 41 76  1  0  0  0  0
 41 77  1  0  0  0  0
M  END
> <PUBCHEM_COMPOUND_CID>
101420745

> <PUBCHEM_COMPOUND_CANONICALIZED>
1

> <PUBCHEM_CACTVS_COMPLEXITY>
788

> <PUBCHEM_CACTVS_HBOND_ACCEPTOR>
11

> <PUBCHEM_CACTVS_HBOND_DONOR>
6

> <PUBCHEM_CACTVS_ROTATABLE_BOND>
12

> <PUBCHEM_CACTVS_SUBSKEYS>
AAADcfB4PAAAAAAAAAAAAAAAAAAAASAAAAAwYMAAAAAAAAABUAAAGgAACAAADVSgmAIyBoAABgCAAiBCAAACCAAgIAAIiAAGiIgNNiKGMRqCeCOlwBELuAfA4PwOoAABAAAAQABAAAIAAACAAAAAAAAAAA==

> <PUBCHEM_IUPAC_OPENEYE_NAME>
2-[4-[[(3S,4R,5S)-3-hydroxy-5-(4-hydroxy-3-methoxy-phenyl)-4-(hydroxymethyl)tetrahydrofuran-3-yl]methyl]-2-methoxy-phenoxy]-1-(4-hydroxy-3-methoxy-phenyl)propane-1,3-diol

> <PUBCHEM_IUPAC_CAS_NAME>
2-[4-[[(3S,4R,5S)-3-hydroxy-5-(4-hydroxy-3-methoxyphenyl)-4-(hydroxymethyl)-3-oxolanyl]methyl]-2-methoxyphenoxy]-1-(4-hydroxy-3-methoxyphenyl)propane-1,3-diol

> <PUBCHEM_IUPAC_NAME_MARKUP>
2-[4-[[(3<I>S</I>,4<I>R</I>,5<I>S</I>)-3-hydroxy-5-(4-hydroxy-3-methoxyphenyl)-4-(hydroxymethyl)oxolan-3-yl]methyl]-2-methoxyphenoxy]-1-(4-hydroxy-3-methoxyphenyl)propane-1,3-diol

> <PUBCHEM_IUPAC_NAME>
2-[4-[[(3S,4R,5S)-3-hydroxy-5-(4-hydroxy-3-methoxyphenyl)-4-(hydroxymethyl)oxolan-3-yl]methyl]-2-methoxyphenoxy]-1-(4-hydroxy-3-methoxyphenyl)propane-1,3-diol

> <PUBCHEM_IUPAC_SYSTEMATIC_NAME>
2-[4-[[(3S,4R,5S)-4-(hydroxymethyl)-5-(3-methoxy-4-oxidanyl-phenyl)-3-oxidanyl-oxolan-3-yl]methyl]-2-methoxy-phenoxy]-1-(3-methoxy-4-oxidanyl-phenyl)propane-1,3-diol

> <PUBCHEM_IUPAC_TRADITIONAL_NAME>
2-[4-[[(3S,4R,5S)-3-hydroxy-5-(4-hydroxy-3-methoxy-phenyl)-4-methylol-tetrahydrofuran-3-yl]methyl]-2-methoxy-phenoxy]-1-(4-hydroxy-3-methoxy-phenyl)propane-1,3-diol

> <PUBCHEM_IUPAC_INCHI>
InChI=1S/C30H36O11/c1-37-24-11-18(5-7-21(24)33)28(35)27(15-32)41-23-9-4-17(10-26(23)39-3)13-30(36)16-40-29(20(30)14-31)19-6-8-22(34)25(12-19)38-2/h4-12,20,27-29,31-36H,13-16H2,1-3H3/t20-,27?,28?,29-,30-/m1/s1

> <PUBCHEM_IUPAC_INCHIKEY>
ZTFZSJOHRKAZFU-MPBAYTRMSA-N

> <PUBCHEM_XLOGP3_AA>
2.1

> <PUBCHEM_EXACT_MASS>
572.22576196

> <PUBCHEM_MOLECULAR_FORMULA>
C30H36O11

> <PUBCHEM_MOLECULAR_WEIGHT>
572.6

> <PUBCHEM_OPENEYE_CAN_SMILES>
COC1=C(C=CC(=C1)CC2(COC(C2CO)C3=CC(=C(C=C3)O)OC)O)OC(CO)C(C4=CC(=C(C=C4)O)OC)O

> <PUBCHEM_OPENEYE_ISO_SMILES>
COC1=C(C=CC(=C1)C[C@]2(CO[C@@H]([C@H]2CO)C3=CC(=C(C=C3)O)OC)O)OC(CO)C(C4=CC(=C(C=C4)O)OC)O

> <PUBCHEM_CACTVS_TPSA>
168

> <PUBCHEM_MONOISOTOPIC_WEIGHT>
572.22576196

> <PUBCHEM_TOTAL_CHARGE>
0

> <PUBCHEM_HEAVY_ATOM_COUNT>
41

> <PUBCHEM_ATOM_DEF_STEREO_COUNT>
3

> <PUBCHEM_ATOM_UDEF_STEREO_COUNT>
2

> <PUBCHEM_BOND_DEF_STEREO_COUNT>
0

> <PUBCHEM_BOND_UDEF_STEREO_COUNT>
0

> <PUBCHEM_ISOTOPIC_ATOM_COUNT>
0

> <PUBCHEM_COMPONENT_COUNT>
1

> <PUBCHEM_CACTVS_TAUTO_COUNT>
-1

> <PUBCHEM_COORDINATE_TYPE>
1
5
255

> <PUBCHEM_BONDANNOTATIONS>
13  17  5
14  18  6
18  20  8
18  21  8
19  22  8
19  23  8
12  2  6
20  24  8
21  25  8
22  26  8
23  27  8
24  28  8
25  28  8
26  29  8
27  29  8
30  32  3
35  36  8
35  37  8
36  38  8
37  39  8
38  40  8
39  40  8
31  8  3

$$$$
