 
  -OEChem-10192104232D

 51 51  0     1  0  0  0  0  0999 V2000
    4.9860    1.5976    0.0000 O   0  0  0  0  0  0  0  0  0  0  0  0
    2.6200   -1.5005    0.0000 O   0  0  0  0  0  0  0  0  0  0  0  0
    3.5463    1.0736    0.0000 O   0  0  0  0  0  0  0  0  0  0  0  0
    2.6200    0.2315    0.0000 O   0  0  0  0  0  0  0  0  0  0  0  0
    4.9860   -0.1345    0.0000 C   0  0  3  0  0  0  0  0  0  0  0  0
    4.1200   -0.6345    0.0000 C   0  0  3  0  0  0  0  0  0  0  0  0
    5.7521    0.5083    0.0000 C   0  0  3  0  0  0  0  0  0  0  0  0
    5.8520   -0.6345    0.0000 C   0  0  0  0  0  0  0  0  0  0  0  0
    4.1200   -1.6345    0.0000 C   0  0  0  0  0  0  0  0  0  0  0  0
    5.8520   -1.6345    0.0000 C   0  0  0  0  0  0  0  0  0  0  0  0
    4.9860   -2.1345    0.0000 C   0  0  0  0  0  0  0  0  0  0  0  0
    6.6918    0.1663    0.0000 C   0  0  0  0  0  0  0  0  0  0  0  0
    3.6200    0.2315    0.0000 C   0  0  0  0  0  0  0  0  0  0  0  0
    4.4860    0.7315    0.0000 C   0  0  0  0  0  0  0  0  0  0  0  0
    3.1200   -0.6345    0.0000 C   0  0  0  0  0  0  0  0  0  0  0  0
    5.5784    1.4931    0.0000 C   0  0  0  0  0  0  0  0  0  0  0  0
    7.4578    0.8091    0.0000 C   0  0  0  0  0  0  0  0  0  0  0  0
    8.3975    0.4670    0.0000 C   0  0  0  0  0  0  0  0  0  0  0  0
    9.1635    1.1098    0.0000 C   0  0  0  0  0  0  0  0  0  0  0  0
   10.1032    0.7678    0.0000 C   0  0  0  0  0  0  0  0  0  0  0  0
   10.8693    1.4106    0.0000 C   0  0  0  0  0  0  0  0  0  0  0  0
    6.2270    0.9068    0.0000 H   0  0  0  0  0  0  0  0  0  0  0  0
    6.4626   -0.7422    0.0000 H   0  0  0  0  0  0  0  0  0  0  0  0
    6.0641   -0.0519    0.0000 H   0  0  0  0  0  0  0  0  0  0  0  0
    3.5094   -1.5268    0.0000 H   0  0  0  0  0  0  0  0  0  0  0  0
    3.9080   -2.2171    0.0000 H   0  0  0  0  0  0  0  0  0  0  0  0
    6.0641   -2.2171    0.0000 H   0  0  0  0  0  0  0  0  0  0  0  0
    6.4626   -1.5268    0.0000 H   0  0  0  0  0  0  0  0  0  0  0  0
    4.5875   -2.6094    0.0000 H   0  0  0  0  0  0  0  0  0  0  0  0
    5.3846   -2.6094    0.0000 H   0  0  0  0  0  0  0  0  0  0  0  0
    6.3818   -0.3707    0.0000 H   0  0  0  0  0  0  0  0  0  0  0  0
    7.1667   -0.2323    0.0000 H   0  0  0  0  0  0  0  0  0  0  0  0
    4.1569    0.5415    0.0000 H   0  0  0  0  0  0  0  0  0  0  0  0
    3.3100    0.7685    0.0000 H   0  0  0  0  0  0  0  0  0  0  0  0
    3.0831   -0.0785    0.0000 H   0  0  0  0  0  0  0  0  0  0  0  0
    6.1890    1.6008    0.0000 H   0  0  0  0  0  0  0  0  0  0  0  0
    5.4708    2.1037    0.0000 H   0  0  0  0  0  0  0  0  0  0  0  0
    4.9678    1.3854    0.0000 H   0  0  0  0  0  0  0  0  0  0  0  0
    7.7678    1.3460    0.0000 H   0  0  0  0  0  0  0  0  0  0  0  0
    6.9829    1.2076    0.0000 H   0  0  0  0  0  0  0  0  0  0  0  0
    8.0875   -0.0699    0.0000 H   0  0  0  0  0  0  0  0  0  0  0  0
    8.8724    0.0685    0.0000 H   0  0  0  0  0  0  0  0  0  0  0  0
    4.6760    2.1345    0.0000 H   0  0  0  0  0  0  0  0  0  0  0  0
    2.0000   -1.5005    0.0000 H   0  0  0  0  0  0  0  0  0  0  0  0
    9.4735    1.6468    0.0000 H   0  0  0  0  0  0  0  0  0  0  0  0
    8.6886    1.5084    0.0000 H   0  0  0  0  0  0  0  0  0  0  0  0
    9.7932    0.2309    0.0000 H   0  0  0  0  0  0  0  0  0  0  0  0
   10.5782    0.3693    0.0000 H   0  0  0  0  0  0  0  0  0  0  0  0
   11.2678    0.9356    0.0000 H   0  0  0  0  0  0  0  0  0  0  0  0
   11.3442    1.8091    0.0000 H   0  0  0  0  0  0  0  0  0  0  0  0
   10.4708    1.8855    0.0000 H   0  0  0  0  0  0  0  0  0  0  0  0
  1 14  1  0  0  0  0
  1 43  1  0  0  0  0
  2 15  1  0  0  0  0
  2 44  1  0  0  0  0
  3 14  2  0  0  0  0
  4 15  2  0  0  0  0
  5  6  1  0  0  0  0
  5  7  1  0  0  0  0
  5  8  1  0  0  0  0
  5 14  1  0  0  0  0
  6  9  1  0  0  0  0
  6 13  1  0  0  0  0
  6 15  1  0  0  0  0
  7 12  1  0  0  0  0
  7 16  1  0  0  0  0
  7 22  1  0  0  0  0
  8 10  1  0  0  0  0
  8 23  1  0  0  0  0
  8 24  1  0  0  0  0
  9 11  1  0  0  0  0
  9 25  1  0  0  0  0
  9 26  1  0  0  0  0
 10 11  1  0  0  0  0
 10 27  1  0  0  0  0
 10 28  1  0  0  0  0
 11 29  1  0  0  0  0
 11 30  1  0  0  0  0
 12 17  1  0  0  0  0
 12 31  1  0  0  0  0
 12 32  1  0  0  0  0
 13 33  1  0  0  0  0
 13 34  1  0  0  0  0
 13 35  1  0  0  0  0
 16 36  1  0  0  0  0
 16 37  1  0  0  0  0
 16 38  1  0  0  0  0
 17 18  1  0  0  0  0
 17 39  1  0  0  0  0
 17 40  1  0  0  0  0
 18 19  1  0  0  0  0
 18 41  1  0  0  0  0
 18 42  1  0  0  0  0
 19 20  1  0  0  0  0
 19 45  1  0  0  0  0
 19 46  1  0  0  0  0
 20 21  1  0  0  0  0
 20 47  1  0  0  0  0
 20 48  1  0  0  0  0
 21 49  1  0  0  0  0
 21 50  1  0  0  0  0
 21 51  1  0  0  0  0
M  END
> <PUBCHEM_COMPOUND_CID>
69518171

> <PUBCHEM_COMPOUND_CANONICALIZED>
1

> <PUBCHEM_CACTVS_COMPLEXITY>
379

> <PUBCHEM_CACTVS_HBOND_ACCEPTOR>
4

> <PUBCHEM_CACTVS_HBOND_DONOR>
2

> <PUBCHEM_CACTVS_ROTATABLE_BOND>
8

> <PUBCHEM_CACTVS_SUBSKEYS>
AAADceB4OAAAAAAAAAAAAAAAAAAAAAAAAAAwAAAAAAAAAAAAAAAAGgAACAAADwCAgAACCAAAAgAIAACQCAAAAAAAAAAAAAEAAAAAABIAAAAAQAAEAAAAAAHLyOCPgAAAAAAAAAAAAAAAACAAAAAAAAAAAA==

> <PUBCHEM_IUPAC_OPENEYE_NAME>
1-methyl-2-(1-methylheptyl)cyclohexane-1,2-dicarboxylic acid

> <PUBCHEM_IUPAC_CAS_NAME>
1-methyl-2-octan-2-ylcyclohexane-1,2-dicarboxylic acid

> <PUBCHEM_IUPAC_NAME_MARKUP>
1-methyl-2-octan-2-ylcyclohexane-1,2-dicarboxylic acid

> <PUBCHEM_IUPAC_NAME>
1-methyl-2-octan-2-ylcyclohexane-1,2-dicarboxylic acid

> <PUBCHEM_IUPAC_SYSTEMATIC_NAME>
1-methyl-2-octan-2-yl-cyclohexane-1,2-dicarboxylic acid

> <PUBCHEM_IUPAC_TRADITIONAL_NAME>
1-methyl-2-(1-methylheptyl)cyclohexane-1,2-dicarboxylic acid

> <PUBCHEM_IUPAC_INCHI>
InChI=1S/C17H30O4/c1-4-5-6-7-10-13(2)17(15(20)21)12-9-8-11-16(17,3)14(18)19/h13H,4-12H2,1-3H3,(H,18,19)(H,20,21)

> <PUBCHEM_IUPAC_INCHIKEY>
SQZJMXALEMOWJV-UHFFFAOYSA-N

> <PUBCHEM_XLOGP3_AA>
5.1

> <PUBCHEM_EXACT_MASS>
298.21440943

> <PUBCHEM_MOLECULAR_FORMULA>
C17H30O4

> <PUBCHEM_MOLECULAR_WEIGHT>
298.4

> <PUBCHEM_OPENEYE_CAN_SMILES>
CCCCCCC(C)C1(CCCCC1(C)C(=O)O)C(=O)O

> <PUBCHEM_OPENEYE_ISO_SMILES>
CCCCCCC(C)C1(CCCCC1(C)C(=O)O)C(=O)O

> <PUBCHEM_CACTVS_TPSA>
74.6

> <PUBCHEM_MONOISOTOPIC_WEIGHT>
298.21440943

> <PUBCHEM_TOTAL_CHARGE>
0

> <PUBCHEM_HEAVY_ATOM_COUNT>
21

> <PUBCHEM_ATOM_DEF_STEREO_COUNT>
0

> <PUBCHEM_ATOM_UDEF_STEREO_COUNT>
3

> <PUBCHEM_BOND_DEF_STEREO_COUNT>
0

> <PUBCHEM_BOND_UDEF_STEREO_COUNT>
0

> <PUBCHEM_ISOTOPIC_ATOM_COUNT>
0

> <PUBCHEM_COMPONENT_COUNT>
1

> <PUBCHEM_CACTVS_TAUTO_COUNT>
-1

> <PUBCHEM_COORDINATE_TYPE>
1
5
255

> <PUBCHEM_BONDANNOTATIONS>
5  14  3
6  13  3
7  16  3

$$$$
