 
  -OEChem-10192103542D

 13 12  0     1  0  0  0  0  0999 V2000
    4.2690   -1.4050    0.0000 O   0  0  0  0  0  0  0  0  0  0  0  0
    2.5369   -0.4050    0.0000 O   0  0  0  0  0  0  0  0  0  0  0  0
    6.8671    1.0950    0.0000 O   0  0  0  0  0  0  0  0  0  0  0  0
    4.2690   -0.4050    0.0000 C   0  0  3  0  0  0  0  0  0  0  0  0
    3.4030    0.0950    0.0000 C   0  0  0  0  0  0  0  0  0  0  0  0
    5.1350    0.0950    0.0000 C   0  0  0  0  0  0  0  0  0  0  0  0
    6.0010    0.5950    0.0000 C   0  0  0  0  0  0  0  0  0  0  0  0
    4.8059   -0.7150    0.0000 H   0  0  0  0  0  0  0  0  0  0  0  0
    3.8015    0.5699    0.0000 H   0  0  0  0  0  0  0  0  0  0  0  0
    3.0044    0.5699    0.0000 H   0  0  0  0  0  0  0  0  0  0  0  0
    4.8059   -1.7150    0.0000 H   0  0  0  0  0  0  0  0  0  0  0  0
    2.0000   -0.0950    0.0000 H   0  0  0  0  0  0  0  0  0  0  0  0
    6.8671    1.7150    0.0000 H   0  0  0  0  0  0  0  0  0  0  0  0
  1  4  1  0  0  0  0
  1 11  1  0  0  0  0
  2  5  1  0  0  0  0
  2 12  1  0  0  0  0
  3  7  1  0  0  0  0
  3 13  1  0  0  0  0
  4  5  1  0  0  0  0
  4  6  1  0  0  0  0
  4  8  1  0  0  0  0
  5  9  1  0  0  0  0
  5 10  1  0  0  0  0
  6  7  3  0  0  0  0
M  END
> <PUBCHEM_COMPOUND_CID>
88302477

> <PUBCHEM_COMPOUND_CANONICALIZED>
1

> <PUBCHEM_CACTVS_COMPLEXITY>
96

> <PUBCHEM_CACTVS_HBOND_ACCEPTOR>
3

> <PUBCHEM_CACTVS_HBOND_DONOR>
3

> <PUBCHEM_CACTVS_ROTATABLE_BOND>
1

> <PUBCHEM_CACTVS_SUBSKEYS>
AAADcYBgMAAAAAAAAAAAAAAAAAAAAAAAAAAAAAAAAAAAAAAAAAAAGgAACAAACBSggAIAAAAAAgBAEAAAAAgAAAAAAAAAAAAAAAABEAAAAAAAQAAAAAABAAAAAAAAAAAAAAAAAAAAAAAAAAAAAAAAAAAAAA==

> <PUBCHEM_IUPAC_OPENEYE_NAME>
but-3-yne-1,2,4-triol

> <PUBCHEM_IUPAC_CAS_NAME>
3-butyne-1,2,4-triol

> <PUBCHEM_IUPAC_NAME_MARKUP>
but-3-yne-1,2,4-triol

> <PUBCHEM_IUPAC_NAME>
but-3-yne-1,2,4-triol

> <PUBCHEM_IUPAC_SYSTEMATIC_NAME>
but-3-yne-1,2,4-triol

> <PUBCHEM_IUPAC_TRADITIONAL_NAME>
but-3-yne-1,2,4-triol

> <PUBCHEM_IUPAC_INCHI>
InChI=1S/C4H6O3/c5-2-1-4(7)3-6/h4-7H,3H2

> <PUBCHEM_IUPAC_INCHIKEY>
RQLSQCZIWPYNTB-UHFFFAOYSA-N

> <PUBCHEM_XLOGP3_AA>
-1

> <PUBCHEM_EXACT_MASS>
102.031694049

> <PUBCHEM_MOLECULAR_FORMULA>
C4H6O3

> <PUBCHEM_MOLECULAR_WEIGHT>
102.09

> <PUBCHEM_OPENEYE_CAN_SMILES>
C(C(C#CO)O)O

> <PUBCHEM_OPENEYE_ISO_SMILES>
C(C(C#CO)O)O

> <PUBCHEM_CACTVS_TPSA>
60.7

> <PUBCHEM_MONOISOTOPIC_WEIGHT>
102.031694049

> <PUBCHEM_TOTAL_CHARGE>
0

> <PUBCHEM_HEAVY_ATOM_COUNT>
7

> <PUBCHEM_ATOM_DEF_STEREO_COUNT>
0

> <PUBCHEM_ATOM_UDEF_STEREO_COUNT>
1

> <PUBCHEM_BOND_DEF_STEREO_COUNT>
0

> <PUBCHEM_BOND_UDEF_STEREO_COUNT>
0

> <PUBCHEM_ISOTOPIC_ATOM_COUNT>
0

> <PUBCHEM_COMPONENT_COUNT>
1

> <PUBCHEM_CACTVS_TAUTO_COUNT>
-1

> <PUBCHEM_COORDINATE_TYPE>
1
5
255

> <PUBCHEM_BONDANNOTATIONS>
4  1  3

$$$$
