 
  -OEChem-10192104122D

 60 62  0     1  0  0  0  0  0999 V2000
    9.4893   -0.3911    0.0000 O   0  0  0  0  0  0  0  0  0  0  0  0
    6.0010    0.5000    0.0000 O   0  0  0  0  0  0  0  0  0  0  0  0
    6.8671   -1.0000    0.0000 O   0  0  0  0  0  0  0  0  0  0  0  0
   10.2629    1.0000    0.0000 O   0  0  0  0  0  0  0  0  0  0  0  0
    8.9900    2.7553    0.0000 O   0  0  0  0  0  0  0  0  0  0  0  0
    5.1350   -1.0000    0.0000 O   0  0  0  0  0  0  0  0  0  0  0  0
    6.8671   -3.0000    0.0000 O   0  0  0  0  0  0  0  0  0  0  0  0
    6.0010    3.5000    0.0000 O   0  0  0  0  0  0  0  0  0  0  0  0
    5.1350   -4.0000    0.0000 O   0  0  0  0  0  0  0  0  0  0  0  0
    7.7331    3.5000    0.0000 O   0  0  0  0  0  0  0  0  0  0  0  0
    3.4030   -3.0000    0.0000 O   0  0  0  0  0  0  0  0  0  0  0  0
    2.5369   -1.5000    0.0000 O   0  0  0  0  0  0  0  0  0  0  0  0
    6.0010   -4.5000    0.0000 O   0  0  0  0  0  0  0  0  0  0  0  0
    7.7331    0.5000    0.0000 C   0  0  2  0  0  0  0  0  0  0  0  0
    8.6793    0.1953    0.0000 C   0  0  2  0  0  0  0  0  0  0  0  0
    7.7331    1.5000    0.0000 C   0  0  2  0  0  0  0  0  0  0  0  0
    9.2629    1.0000    0.0000 C   0  0  2  0  0  0  0  0  0  0  0  0
    8.6793    1.8047    0.0000 C   0  0  1  0  0  0  0  0  0  0  0  0
    6.8671    0.0000    0.0000 C   0  0  1  0  0  0  0  0  0  0  0  0
    6.8671    2.0000    0.0000 C   0  0  0  0  0  0  0  0  0  0  0  0
    8.3719   -0.7563    0.0000 C   0  0  0  0  0  0  0  0  0  0  0  0
    6.0010    1.5000    0.0000 C   0  0  0  0  0  0  0  0  0  0  0  0
    6.0010   -1.5000    0.0000 C   0  0  2  0  0  0  0  0  0  0  0  0
    6.0010   -2.5000    0.0000 C   0  0  1  0  0  0  0  0  0  0  0  0
    6.8671    3.0000    0.0000 C   0  0  0  0  0  0  0  0  0  0  0  0
    5.1350   -3.0000    0.0000 C   0  0  2  0  0  0  0  0  0  0  0  0
    4.2690   -2.5000    0.0000 C   0  0  1  0  0  0  0  0  0  0  0  0
    4.2690   -1.5000    0.0000 C   0  0  1  0  0  0  0  0  0  0  0  0
    3.4030   -1.0000    0.0000 C   0  0  0  0  0  0  0  0  0  0  0  0
    6.8671   -4.0000    0.0000 C   0  0  0  0  0  0  0  0  0  0  0  0
    6.0010    4.5000    0.0000 C   0  0  0  0  0  0  0  0  0  0  0  0
    7.7331   -4.5000    0.0000 C   0  0  0  0  0  0  0  0  0  0  0  0
    7.8230   -0.3452    0.0000 H   0  0  0  0  0  0  0  0  0  0  0  0
    7.8230    2.3452    0.0000 H   0  0  0  0  0  0  0  0  0  0  0  0
    9.5446    0.4477    0.0000 H   0  0  0  0  0  0  0  0  0  0  0  0
    8.2418    2.2441    0.0000 H   0  0  0  0  0  0  0  0  0  0  0  0
    7.4040   -0.3100    0.0000 H   0  0  0  0  0  0  0  0  0  0  0  0
    7.7820   -0.5658    0.0000 H   0  0  0  0  0  0  0  0  0  0  0  0
    8.1814   -1.3463    0.0000 H   0  0  0  0  0  0  0  0  0  0  0  0
    8.9619   -0.9469    0.0000 H   0  0  0  0  0  0  0  0  0  0  0  0
    9.4256   -1.0078    0.0000 H   0  0  0  0  0  0  0  0  0  0  0  0
    5.4641    1.8100    0.0000 H   0  0  0  0  0  0  0  0  0  0  0  0
    6.0010   -0.8800    0.0000 H   0  0  0  0  0  0  0  0  0  0  0  0
   10.5729    1.5369    0.0000 H   0  0  0  0  0  0  0  0  0  0  0  0
    9.5966    2.8831    0.0000 H   0  0  0  0  0  0  0  0  0  0  0  0
    6.0010   -3.1200    0.0000 H   0  0  0  0  0  0  0  0  0  0  0  0
    4.5981   -3.3100    0.0000 H   0  0  0  0  0  0  0  0  0  0  0  0
    4.2690   -3.1200    0.0000 H   0  0  0  0  0  0  0  0  0  0  0  0
    4.2690   -0.8800    0.0000 H   0  0  0  0  0  0  0  0  0  0  0  0
    3.8015   -0.5251    0.0000 H   0  0  0  0  0  0  0  0  0  0  0  0
    3.0044   -0.5251    0.0000 H   0  0  0  0  0  0  0  0  0  0  0  0
    4.5981   -4.3100    0.0000 H   0  0  0  0  0  0  0  0  0  0  0  0
    3.4030   -3.6200    0.0000 H   0  0  0  0  0  0  0  0  0  0  0  0
    6.6210    4.5000    0.0000 H   0  0  0  0  0  0  0  0  0  0  0  0
    6.0010    5.1200    0.0000 H   0  0  0  0  0  0  0  0  0  0  0  0
    5.3810    4.5000    0.0000 H   0  0  0  0  0  0  0  0  0  0  0  0
    2.0000   -1.1900    0.0000 H   0  0  0  0  0  0  0  0  0  0  0  0
    7.4231   -5.0369    0.0000 H   0  0  0  0  0  0  0  0  0  0  0  0
    8.2700   -4.8100    0.0000 H   0  0  0  0  0  0  0  0  0  0  0  0
    8.0431   -3.9631    0.0000 H   0  0  0  0  0  0  0  0  0  0  0  0
 15  1  1  6  0  0  0
  1 41  1  0  0  0  0
  2 19  1  0  0  0  0
  2 22  1  0  0  0  0
 19  3  1  6  0  0  0
 23  3  1  1  0  0  0
 17  4  1  6  0  0  0
  4 44  1  0  0  0  0
 18  5  1  6  0  0  0
  5 45  1  0  0  0  0
  6 23  1  0  0  0  0
  6 28  1  0  0  0  0
 24  7  1  6  0  0  0
  7 30  1  0  0  0  0
  8 25  1  0  0  0  0
  8 31  1  0  0  0  0
 26  9  1  1  0  0  0
  9 52  1  0  0  0  0
 10 25  2  0  0  0  0
 27 11  1  6  0  0  0
 11 53  1  0  0  0  0
 12 29  1  0  0  0  0
 12 57  1  0  0  0  0
 13 30  2  0  0  0  0
 14 15  1  0  0  0  0
 14 16  1  0  0  0  0
 14 19  1  0  0  0  0
 14 33  1  6  0  0  0
 15 17  1  0  0  0  0
 15 21  1  0  0  0  0
 16 18  1  0  0  0  0
 16 20  1  0  0  0  0
 16 34  1  6  0  0  0
 17 18  1  0  0  0  0
 17 35  1  0  0  0  0
 18 36  1  0  0  0  0
 19 37  1  0  0  0  0
 20 22  2  0  0  0  0
 20 25  1  0  0  0  0
 21 38  1  0  0  0  0
 21 39  1  0  0  0  0
 21 40  1  0  0  0  0
 22 42  1  0  0  0  0
 23 24  1  0  0  0  0
 23 43  1  0  0  0  0
 24 26  1  0  0  0  0
 24 46  1  0  0  0  0
 26 27  1  0  0  0  0
 26 47  1  0  0  0  0
 27 28  1  0  0  0  0
 27 48  1  0  0  0  0
 28 29  1  1  0  0  0
 28 49  1  0  0  0  0
 29 50  1  0  0  0  0
 29 51  1  0  0  0  0
 30 32  1  0  0  0  0
 31 54  1  0  0  0  0
 31 55  1  0  0  0  0
 31 56  1  0  0  0  0
 32 58  1  0  0  0  0
 32 59  1  0  0  0  0
 32 60  1  0  0  0  0
M  END
> <PUBCHEM_COMPOUND_CID>
102237726

> <PUBCHEM_COMPOUND_CANONICALIZED>
1

> <PUBCHEM_CACTVS_COMPLEXITY>
756

> <PUBCHEM_CACTVS_HBOND_ACCEPTOR>
13

> <PUBCHEM_CACTVS_HBOND_DONOR>
6

> <PUBCHEM_CACTVS_ROTATABLE_BOND>
7

> <PUBCHEM_CACTVS_SUBSKEYS>
AAADceB4PAAAAAAAAAAAAAAAAAAAAYAAAAAkQAAAAAAAAEAAAAAAGgAACAAADVSwgAMCCAAABgCIAgDSCAAACAAgIAAAAAEAAEgRFBIAIQAiQAAFwAAHIIHK7PzOgAAAAAAAAAAAAAAAAAAAAYQADCAAAA==

> <PUBCHEM_IUPAC_OPENEYE_NAME>
methyl (1S,4aS,5S,6S,7R,7aS)-1-[(2S,3R,4S,5S,6R)-3-acetoxy-4,5-dihydroxy-6-(hydroxymethyl)tetrahydropyran-2-yl]oxy-5,6,7-trihydroxy-7-methyl-4a,5,6,7a-tetrahydro-1H-cyclopenta[c]pyran-4-carboxylate

> <PUBCHEM_IUPAC_CAS_NAME>
(1S,4aS,5S,6S,7R,7aS)-1-[[(2S,3R,4S,5S,6R)-3-acetyloxy-4,5-dihydroxy-6-(hydroxymethyl)-2-oxanyl]oxy]-5,6,7-trihydroxy-7-methyl-4a,5,6,7a-tetrahydro-1H-cyclopenta[c]pyran-4-carboxylic acid methyl ester

> <PUBCHEM_IUPAC_NAME_MARKUP>
methyl (1<I>S</I>,4<I>a</I><I>S</I>,5<I>S</I>,6<I>S</I>,7<I>R</I>,7<I>a</I><I>S</I>)-1-[(2<I>S</I>,3<I>R</I>,4<I>S</I>,5<I>S</I>,6<I>R</I>)-3-acetyloxy-4,5-dihydroxy-6-(hydroxymethyl)oxan-2-yl]oxy-5,6,7-trihydroxy-7-methyl-4<I>a</I>,5,6,7<I>a</I>-tetrahydro-1<I>H</I>-cyclopenta[c]pyran-4-carboxylate

> <PUBCHEM_IUPAC_NAME>
methyl (1S,4aS,5S,6S,7R,7aS)-1-[(2S,3R,4S,5S,6R)-3-acetyloxy-4,5-dihydroxy-6-(hydroxymethyl)oxan-2-yl]oxy-5,6,7-trihydroxy-7-methyl-4a,5,6,7a-tetrahydro-1H-cyclopenta[c]pyran-4-carboxylate

> <PUBCHEM_IUPAC_SYSTEMATIC_NAME>
methyl (1S,4aS,5S,6S,7R,7aS)-1-[(2S,3R,4S,5S,6R)-3-acetyloxy-6-(hydroxymethyl)-4,5-bis(oxidanyl)oxan-2-yl]oxy-7-methyl-5,6,7-tris(oxidanyl)-4a,5,6,7a-tetrahydro-1H-cyclopenta[c]pyran-4-carboxylate

> <PUBCHEM_IUPAC_TRADITIONAL_NAME>
(1S,4aS,5S,6S,7R,7aS)-1-[(2S,3R,4S,5S,6R)-3-acetoxy-4,5-dihydroxy-6-methylol-tetrahydropyran-2-yl]oxy-5,6,7-trihydroxy-7-methyl-4a,5,6,7a-tetrahydro-1H-cyclopenta[c]pyran-4-carboxylic acid methyl ester

> <PUBCHEM_IUPAC_INCHI>
InChI=1S/C19H28O13/c1-6(21)30-14-13(24)11(22)8(4-20)31-18(14)32-17-10-9(7(5-29-17)16(26)28-3)12(23)15(25)19(10,2)27/h5,8-15,17-18,20,22-25,27H,4H2,1-3H3/t8-,9-,10-,11-,12+,13+,14-,15+,17+,18+,19-/m1/s1

> <PUBCHEM_IUPAC_INCHIKEY>
NPSNYEVBZIRVFW-FXYXNRIXSA-N

> <PUBCHEM_XLOGP3_AA>
-3

> <PUBCHEM_EXACT_MASS>
464.15299094

> <PUBCHEM_MOLECULAR_FORMULA>
C19H28O13

> <PUBCHEM_MOLECULAR_WEIGHT>
464.4

> <PUBCHEM_OPENEYE_CAN_SMILES>
CC(=O)OC1C(C(C(OC1OC2C3C(C(C(C3(C)O)O)O)C(=CO2)C(=O)OC)CO)O)O

> <PUBCHEM_OPENEYE_ISO_SMILES>
CC(=O)O[C@@H]1[C@H]([C@@H]([C@H](O[C@H]1O[C@H]2[C@H]3[C@H]([C@@H]([C@@H]([C@]3(C)O)O)O)C(=CO2)C(=O)OC)CO)O)O

> <PUBCHEM_CACTVS_TPSA>
202

> <PUBCHEM_MONOISOTOPIC_WEIGHT>
464.15299094

> <PUBCHEM_TOTAL_CHARGE>
0

> <PUBCHEM_HEAVY_ATOM_COUNT>
32

> <PUBCHEM_ATOM_DEF_STEREO_COUNT>
11

> <PUBCHEM_ATOM_UDEF_STEREO_COUNT>
0

> <PUBCHEM_BOND_DEF_STEREO_COUNT>
0

> <PUBCHEM_BOND_UDEF_STEREO_COUNT>
0

> <PUBCHEM_ISOTOPIC_ATOM_COUNT>
0

> <PUBCHEM_COMPONENT_COUNT>
1

> <PUBCHEM_CACTVS_TAUTO_COUNT>
-1

> <PUBCHEM_COORDINATE_TYPE>
1
5
255

> <PUBCHEM_BONDANNOTATIONS>
15  1  6
27  11  6
14  33  6
16  34  6
28  29  5
19  3  6
23  3  5
17  4  6
18  5  6
24  7  6
26  9  5

$$$$
