 
  -OEChem-10192104102D

 23 23  0     1  0  0  0  0  0999 V2000
    2.0000   -0.9339    0.0000 O   0  0  0  0  0  0  0  0  0  0  0  0
    5.0916   -0.0000    0.0000 C   0  0  3  0  0  0  0  0  0  0  0  0
    4.6577    0.9010    0.0000 C   0  0  0  0  0  0  0  0  0  0  0  0
    4.6577   -0.9010    0.0000 C   0  0  0  0  0  0  0  0  0  0  0  0
    3.6828    1.1235    0.0000 C   0  0  0  0  0  0  0  0  0  0  0  0
    3.6828   -1.1235    0.0000 C   0  0  0  0  0  0  0  0  0  0  0  0
    2.9010    0.5000    0.0000 C   0  0  0  0  0  0  0  0  0  0  0  0
    6.0916   -0.0000    0.0000 C   0  0  0  0  0  0  0  0  0  0  0  0
    2.9010   -0.5000    0.0000 C   0  0  0  0  0  0  0  0  0  0  0  0
    5.5438    0.7197    0.0000 H   0  0  0  0  0  0  0  0  0  0  0  0
    5.2622    1.0389    0.0000 H   0  0  0  0  0  0  0  0  0  0  0  0
    4.6577    1.5210    0.0000 H   0  0  0  0  0  0  0  0  0  0  0  0
    4.6577   -1.5210    0.0000 H   0  0  0  0  0  0  0  0  0  0  0  0
    5.2622   -1.0389    0.0000 H   0  0  0  0  0  0  0  0  0  0  0  0
    3.9518    1.6821    0.0000 H   0  0  0  0  0  0  0  0  0  0  0  0
    3.1981    1.5100    0.0000 H   0  0  0  0  0  0  0  0  0  0  0  0
    3.1981   -1.5100    0.0000 H   0  0  0  0  0  0  0  0  0  0  0  0
    3.9518   -1.6821    0.0000 H   0  0  0  0  0  0  0  0  0  0  0  0
    2.6320    1.0586    0.0000 H   0  0  0  0  0  0  0  0  0  0  0  0
    2.2965    0.3620    0.0000 H   0  0  0  0  0  0  0  0  0  0  0  0
    6.0916   -0.6200    0.0000 H   0  0  0  0  0  0  0  0  0  0  0  0
    6.7116   -0.0000    0.0000 H   0  0  0  0  0  0  0  0  0  0  0  0
    6.0916    0.6200    0.0000 H   0  0  0  0  0  0  0  0  0  0  0  0
  1  9  2  0  0  0  0
  2  3  1  0  0  0  0
  2  4  1  0  0  0  0
  2  8  1  0  0  0  0
  2 10  1  0  0  0  0
  3  5  1  0  0  0  0
  3 11  1  0  0  0  0
  3 12  1  0  0  0  0
  4  6  1  0  0  0  0
  4 13  1  0  0  0  0
  4 14  1  0  0  0  0
  5  7  1  0  0  0  0
  5 15  1  0  0  0  0
  5 16  1  0  0  0  0
  6  9  1  0  0  0  0
  6 17  1  0  0  0  0
  6 18  1  0  0  0  0
  7  9  1  0  0  0  0
  7 19  1  0  0  0  0
  7 20  1  0  0  0  0
  8 21  1  0  0  0  0
  8 22  1  0  0  0  0
  8 23  1  0  0  0  0
M  END
> <PUBCHEM_COMPOUND_CID>
227397

> <PUBCHEM_COMPOUND_CANONICALIZED>
1

> <PUBCHEM_CACTVS_COMPLEXITY>
107

> <PUBCHEM_CACTVS_HBOND_ACCEPTOR>
1

> <PUBCHEM_CACTVS_HBOND_DONOR>
0

> <PUBCHEM_CACTVS_ROTATABLE_BOND>
0

> <PUBCHEM_CACTVS_SUBSKEYS>
AAADccBwIAAAAAAAAAAAAAAAAAAAAAAAAAAAAAAABgAAAAAAAAAAGgAAAAAADQSAgAACAAAAAAAIAIAQAAAAAAAAAAAAAAEAAAAAABIAAAAAAAAAAAAAAAEIiMCOAAAAAAAAAAAAAAAAAAAAAAAAAAAAAA==

> <PUBCHEM_IUPAC_OPENEYE_NAME>
4-methylcycloheptanone

> <PUBCHEM_IUPAC_CAS_NAME>
4-methyl-1-cycloheptanone

> <PUBCHEM_IUPAC_NAME_MARKUP>
4-methylcycloheptan-1-one

> <PUBCHEM_IUPAC_NAME>
4-methylcycloheptan-1-one

> <PUBCHEM_IUPAC_SYSTEMATIC_NAME>
4-methylcycloheptan-1-one

> <PUBCHEM_IUPAC_TRADITIONAL_NAME>
4-methylcycloheptanone

> <PUBCHEM_IUPAC_INCHI>
InChI=1S/C8H14O/c1-7-3-2-4-8(9)6-5-7/h7H,2-6H2,1H3

> <PUBCHEM_IUPAC_INCHIKEY>
WXVNSHRGPVHBPD-UHFFFAOYSA-N

> <PUBCHEM_XLOGP3_AA>
1.7

> <PUBCHEM_EXACT_MASS>
126.104465066

> <PUBCHEM_MOLECULAR_FORMULA>
C8H14O

> <PUBCHEM_MOLECULAR_WEIGHT>
126.20

> <PUBCHEM_OPENEYE_CAN_SMILES>
CC1CCCC(=O)CC1

> <PUBCHEM_OPENEYE_ISO_SMILES>
CC1CCCC(=O)CC1

> <PUBCHEM_CACTVS_TPSA>
17.1

> <PUBCHEM_MONOISOTOPIC_WEIGHT>
126.104465066

> <PUBCHEM_TOTAL_CHARGE>
0

> <PUBCHEM_HEAVY_ATOM_COUNT>
9

> <PUBCHEM_ATOM_DEF_STEREO_COUNT>
0

> <PUBCHEM_ATOM_UDEF_STEREO_COUNT>
1

> <PUBCHEM_BOND_DEF_STEREO_COUNT>
0

> <PUBCHEM_BOND_UDEF_STEREO_COUNT>
0

> <PUBCHEM_ISOTOPIC_ATOM_COUNT>
0

> <PUBCHEM_COMPONENT_COUNT>
1

> <PUBCHEM_CACTVS_TAUTO_COUNT>
3

> <PUBCHEM_COORDINATE_TYPE>
1
5
255

> <PUBCHEM_BONDANNOTATIONS>
2  10  3

$$$$
