 
  -OEChem-10192103512D

 66 69  0     1  0  0  0  0  0999 V2000
    8.9900    2.2874    0.0000 O   0  0  0  0  0  0  0  0  0  0  0  0
    6.8671   -1.4678    0.0000 O   0  0  0  0  0  0  0  0  0  0  0  0
    6.0010    0.0322    0.0000 O   0  0  0  0  0  0  0  0  0  0  0  0
   10.6363    1.7494    0.0000 O   0  0  0  0  0  0  0  0  0  0  0  0
    5.1350   -1.4678    0.0000 O   0  0  0  0  0  0  0  0  0  0  0  0
    9.6113    4.1885    0.0000 O   0  0  0  0  0  0  0  0  0  0  0  0
    6.8671   -3.4678    0.0000 O   0  0  0  0  0  0  0  0  0  0  0  0
    9.9685   -1.4293    0.0000 O   0  0  0  0  0  0  0  0  0  0  0  0
   11.5683    4.6009    0.0000 O   0  0  0  0  0  0  0  0  0  0  0  0
    5.1350   -4.4678    0.0000 O   0  0  0  0  0  0  0  0  0  0  0  0
   12.9040    3.1123    0.0000 O   0  0  0  0  0  0  0  0  0  0  0  0
    3.4030   -3.4678    0.0000 O   0  0  0  0  0  0  0  0  0  0  0  0
    2.5369   -1.9678    0.0000 O   0  0  0  0  0  0  0  0  0  0  0  0
    7.7331    0.0322    0.0000 C   0  0  2  0  0  0  0  0  0  0  0  0
    7.7331    1.0322    0.0000 C   0  0  2  0  0  0  0  0  0  0  0  0
    8.6793    1.3369    0.0000 C   0  0  1  0  0  0  0  0  0  0  0  0
    6.8671   -0.4678    0.0000 C   0  0  2  0  0  0  0  0  0  0  0  0
    8.6793   -0.2725    0.0000 C   0  0  0  0  0  0  0  0  0  0  0  0
    9.2629    0.5322    0.0000 C   0  0  0  0  0  0  0  0  0  0  0  0
    6.8671    1.5322    0.0000 C   0  0  0  0  0  0  0  0  0  0  0  0
    9.9685    2.4937    0.0000 C   0  0  2  0  0  0  0  0  0  0  0  0
    6.0010   -1.9678    0.0000 C   0  0  2  0  0  0  0  0  0  0  0  0
   10.2791    3.4442    0.0000 C   0  0  1  0  0  0  0  0  0  0  0  0
    6.0010   -2.9678    0.0000 C   0  0  1  0  0  0  0  0  0  0  0  0
    8.9900   -1.2231    0.0000 C   0  0  0  0  0  0  0  0  0  0  0  0
   11.2576    3.6504    0.0000 C   0  0  1  0  0  0  0  0  0  0  0  0
    5.1350   -3.4678    0.0000 C   0  0  2  0  0  0  0  0  0  0  0  0
   11.9255    2.9061    0.0000 C   0  0  2  0  0  0  0  0  0  0  0  0
    4.2690   -2.9678    0.0000 C   0  0  1  0  0  0  0  0  0  0  0  0
   11.6148    1.9556    0.0000 C   0  0  2  0  0  0  0  0  0  0  0  0
    6.0010    1.0322    0.0000 C   0  0  0  0  0  0  0  0  0  0  0  0
    4.2690   -1.9678    0.0000 C   0  0  1  0  0  0  0  0  0  0  0  0
    3.4030   -1.4678    0.0000 C   0  0  0  0  0  0  0  0  0  0  0  0
   12.2827    1.2113    0.0000 C   0  0  0  0  0  0  0  0  0  0  0  0
    7.8230   -0.8130    0.0000 H   0  0  0  0  0  0  0  0  0  0  0  0
    7.8230    1.8774    0.0000 H   0  0  0  0  0  0  0  0  0  0  0  0
    8.2418    1.7763    0.0000 H   0  0  0  0  0  0  0  0  0  0  0  0
    7.4040   -0.7778    0.0000 H   0  0  0  0  0  0  0  0  0  0  0  0
    9.8829    0.5322    0.0000 H   0  0  0  0  0  0  0  0  0  0  0  0
    6.8671    2.1522    0.0000 H   0  0  0  0  0  0  0  0  0  0  0  0
    9.7759    1.9043    0.0000 H   0  0  0  0  0  0  0  0  0  0  0  0
    6.0010   -1.3478    0.0000 H   0  0  0  0  0  0  0  0  0  0  0  0
   10.4717    4.0335    0.0000 H   0  0  0  0  0  0  0  0  0  0  0  0
    6.0010   -3.5878    0.0000 H   0  0  0  0  0  0  0  0  0  0  0  0
    8.3762   -1.3104    0.0000 H   0  0  0  0  0  0  0  0  0  0  0  0
    8.9694   -1.8427    0.0000 H   0  0  0  0  0  0  0  0  0  0  0  0
   11.8643    3.7783    0.0000 H   0  0  0  0  0  0  0  0  0  0  0  0
    4.5981   -3.7778    0.0000 H   0  0  0  0  0  0  0  0  0  0  0  0
   12.3396    2.4446    0.0000 H   0  0  0  0  0  0  0  0  0  0  0  0
    4.2690   -3.5878    0.0000 H   0  0  0  0  0  0  0  0  0  0  0  0
   11.4222    1.3663    0.0000 H   0  0  0  0  0  0  0  0  0  0  0  0
    5.4641    1.3422    0.0000 H   0  0  0  0  0  0  0  0  0  0  0  0
    4.2690   -1.3478    0.0000 H   0  0  0  0  0  0  0  0  0  0  0  0
    3.8015   -0.9929    0.0000 H   0  0  0  0  0  0  0  0  0  0  0  0
    3.0044   -0.9929    0.0000 H   0  0  0  0  0  0  0  0  0  0  0  0
   11.8212    0.7972    0.0000 H   0  0  0  0  0  0  0  0  0  0  0  0
   12.6967    0.7498    0.0000 H   0  0  0  0  0  0  0  0  0  0  0  0
   12.7441    1.6253    0.0000 H   0  0  0  0  0  0  0  0  0  0  0  0
    9.8039    4.7778    0.0000 H   0  0  0  0  0  0  0  0  0  0  0  0
    6.8671   -4.0878    0.0000 H   0  0  0  0  0  0  0  0  0  0  0  0
   12.1750    4.7288    0.0000 H   0  0  0  0  0  0  0  0  0  0  0  0
   10.1611   -2.0186    0.0000 H   0  0  0  0  0  0  0  0  0  0  0  0
    4.5981   -4.7778    0.0000 H   0  0  0  0  0  0  0  0  0  0  0  0
   13.3181    2.6508    0.0000 H   0  0  0  0  0  0  0  0  0  0  0  0
    3.4030   -4.0878    0.0000 H   0  0  0  0  0  0  0  0  0  0  0  0
    2.0000   -1.6578    0.0000 H   0  0  0  0  0  0  0  0  0  0  0  0
 16  1  1  6  0  0  0
 21  1  1  1  0  0  0
 17  2  1  6  0  0  0
 22  2  1  1  0  0  0
  3 17  1  0  0  0  0
  3 31  1  0  0  0  0
  4 21  1  0  0  0  0
  4 30  1  0  0  0  0
  5 22  1  0  0  0  0
  5 32  1  0  0  0  0
 23  6  1  6  0  0  0
  6 59  1  0  0  0  0
 24  7  1  6  0  0  0
  7 60  1  0  0  0  0
  8 25  1  0  0  0  0
  8 62  1  0  0  0  0
 26  9  1  6  0  0  0
  9 61  1  0  0  0  0
 27 10  1  1  0  0  0
 10 63  1  0  0  0  0
 28 11  1  1  0  0  0
 11 64  1  0  0  0  0
 29 12  1  6  0  0  0
 12 65  1  0  0  0  0
 13 33  1  0  0  0  0
 13 66  1  0  0  0  0
 14 15  1  0  0  0  0
 14 17  1  0  0  0  0
 14 18  1  0  0  0  0
 14 35  1  6  0  0  0
 15 16  1  0  0  0  0
 15 20  1  0  0  0  0
 15 36  1  6  0  0  0
 16 19  1  0  0  0  0
 16 37  1  0  0  0  0
 17 38  1  0  0  0  0
 18 19  2  0  0  0  0
 18 25  1  0  0  0  0
 19 39  1  0  0  0  0
 20 31  2  0  0  0  0
 20 40  1  0  0  0  0
 21 23  1  0  0  0  0
 21 41  1  0  0  0  0
 22 24  1  0  0  0  0
 22 42  1  0  0  0  0
 23 26  1  0  0  0  0
 23 43  1  0  0  0  0
 24 27  1  0  0  0  0
 24 44  1  0  0  0  0
 25 45  1  0  0  0  0
 25 46  1  0  0  0  0
 26 28  1  0  0  0  0
 26 47  1  0  0  0  0
 27 29  1  0  0  0  0
 27 48  1  0  0  0  0
 28 30  1  0  0  0  0
 28 49  1  0  0  0  0
 29 32  1  0  0  0  0
 29 50  1  0  0  0  0
 30 34  1  6  0  0  0
 30 51  1  0  0  0  0
 31 52  1  0  0  0  0
 32 33  1  1  0  0  0
 32 53  1  0  0  0  0
 33 54  1  0  0  0  0
 33 55  1  0  0  0  0
 34 56  1  0  0  0  0
 34 57  1  0  0  0  0
 34 58  1  0  0  0  0
M  END
> <PUBCHEM_COMPOUND_CID>
21591416

> <PUBCHEM_COMPOUND_CANONICALIZED>
1

> <PUBCHEM_CACTVS_COMPLEXITY>
761

> <PUBCHEM_CACTVS_HBOND_ACCEPTOR>
13

> <PUBCHEM_CACTVS_HBOND_DONOR>
8

> <PUBCHEM_CACTVS_ROTATABLE_BOND>
6

> <PUBCHEM_CACTVS_SUBSKEYS>
AAADcfB4PAAAAAAAAAAAAAAAAAAAAQAAAAAkSIAAAAAAAEAAAAAAGgAACAAADRSwgAMCCAAABgCAAiBCAAAACAAgIAAICAAAAAgRFAIAIQAiUAAFwAAPMAPAYAwOgAAAAAAAAAAAAAAAAAAAAAAAAAAAAA==

> <PUBCHEM_IUPAC_OPENEYE_NAME>
(2R,3R,4R,5R,6S)-2-[[(1S,4aR,5S,7aS)-7-(hydroxymethyl)-1-[(2S,3R,4S,5S,6R)-3,4,5-trihydroxy-6-(hydroxymethyl)tetrahydropyran-2-yl]oxy-1,4a,5,7a-tetrahydrocyclopenta[c]pyran-5-yl]oxy]-6-methyl-tetrahydropyran-3,4,5-triol

> <PUBCHEM_IUPAC_CAS_NAME>
(2R,3R,4R,5R,6S)-2-[[(1S,4aR,5S,7aS)-7-(hydroxymethyl)-1-[[(2S,3R,4S,5S,6R)-3,4,5-trihydroxy-6-(hydroxymethyl)-2-oxanyl]oxy]-1,4a,5,7a-tetrahydrocyclopenta[c]pyran-5-yl]oxy]-6-methyloxane-3,4,5-triol

> <PUBCHEM_IUPAC_NAME_MARKUP>
(2<I>R</I>,3<I>R</I>,4<I>R</I>,5<I>R</I>,6<I>S</I>)-2-[[(1<I>S</I>,4<I>a</I><I>R</I>,5<I>S</I>,7<I>a</I><I>S</I>)-7-(hydroxymethyl)-1-[(2<I>S</I>,3<I>R</I>,4<I>S</I>,5<I>S</I>,6<I>R</I>)-3,4,5-trihydroxy-6-(hydroxymethyl)oxan-2-yl]oxy-1,4<I>a</I>,5,7<I>a</I>-tetrahydrocyclopenta[c]pyran-5-yl]oxy]-6-methyloxane-3,4,5-triol

> <PUBCHEM_IUPAC_NAME>
(2R,3R,4R,5R,6S)-2-[[(1S,4aR,5S,7aS)-7-(hydroxymethyl)-1-[(2S,3R,4S,5S,6R)-3,4,5-trihydroxy-6-(hydroxymethyl)oxan-2-yl]oxy-1,4a,5,7a-tetrahydrocyclopenta[c]pyran-5-yl]oxy]-6-methyloxane-3,4,5-triol

> <PUBCHEM_IUPAC_SYSTEMATIC_NAME>
(2R,3R,4R,5R,6S)-2-[[(1S,4aR,5S,7aS)-7-(hydroxymethyl)-1-[(2S,3R,4S,5S,6R)-6-(hydroxymethyl)-3,4,5-tris(oxidanyl)oxan-2-yl]oxy-1,4a,5,7a-tetrahydrocyclopenta[c]pyran-5-yl]oxy]-6-methyl-oxane-3,4,5-triol

> <PUBCHEM_IUPAC_TRADITIONAL_NAME>
(2R,3R,4R,5R,6S)-2-[[(1S,4aR,5S,7aS)-7-methylol-1-[(2S,3R,4S,5S,6R)-3,4,5-trihydroxy-6-methylol-tetrahydropyran-2-yl]oxy-1,4a,5,7a-tetrahydrocyclopenta[c]pyran-5-yl]oxy]-6-methyl-tetrahydropyran-3,4,5-triol

> <PUBCHEM_IUPAC_INCHI>
InChI=1S/C21H32O13/c1-7-13(24)15(26)17(28)20(31-7)32-10-4-8(5-22)12-9(10)2-3-30-19(12)34-21-18(29)16(27)14(25)11(6-23)33-21/h2-4,7,9-29H,5-6H2,1H3/t7-,9-,10+,11+,12+,13-,14+,15+,16-,17+,18+,19-,20-,21-/m0/s1

> <PUBCHEM_IUPAC_INCHIKEY>
GKYZLSXVWCJFOK-INEXIVGBSA-N

> <PUBCHEM_XLOGP3_AA>
-4.1

> <PUBCHEM_EXACT_MASS>
492.18429107

> <PUBCHEM_MOLECULAR_FORMULA>
C21H32O13

> <PUBCHEM_MOLECULAR_WEIGHT>
492.5

> <PUBCHEM_OPENEYE_CAN_SMILES>
CC1C(C(C(C(O1)OC2C=C(C3C2C=COC3OC4C(C(C(C(O4)CO)O)O)O)CO)O)O)O

> <PUBCHEM_OPENEYE_ISO_SMILES>
C[C@H]1[C@@H]([C@H]([C@H]([C@@H](O1)O[C@@H]2C=C([C@@H]3[C@H]2C=CO[C@H]3O[C@H]4[C@@H]([C@H]([C@@H]([C@H](O4)CO)O)O)O)CO)O)O)O

> <PUBCHEM_CACTVS_TPSA>
208

> <PUBCHEM_MONOISOTOPIC_WEIGHT>
492.18429107

> <PUBCHEM_TOTAL_CHARGE>
0

> <PUBCHEM_HEAVY_ATOM_COUNT>
34

> <PUBCHEM_ATOM_DEF_STEREO_COUNT>
14

> <PUBCHEM_ATOM_UDEF_STEREO_COUNT>
0

> <PUBCHEM_BOND_DEF_STEREO_COUNT>
0

> <PUBCHEM_BOND_UDEF_STEREO_COUNT>
0

> <PUBCHEM_ISOTOPIC_ATOM_COUNT>
0

> <PUBCHEM_COMPONENT_COUNT>
1

> <PUBCHEM_CACTVS_TAUTO_COUNT>
-1

> <PUBCHEM_COORDINATE_TYPE>
1
5
255

> <PUBCHEM_BONDANNOTATIONS>
16  1  6
21  1  5
27  10  5
28  11  5
29  12  6
14  35  6
15  36  6
17  2  6
22  2  5
30  34  6
32  33  5
23  6  6
24  7  6
26  9  6

$$$$
