 
  -OEChem-10192104422D

 87 94  0     1  0  0  0  0  0999 V2000
   13.9582   -2.3132    0.0000 O   0  0  0  0  0  0  0  0  0  0  0  0
   15.5104   -0.2429    0.0000 O   0  0  0  0  0  0  0  0  0  0  0  0
   13.3823    0.2095    0.0000 O   0  0  0  0  0  0  0  0  0  0  0  0
   17.4698   -3.4065    0.0000 O   0  0  0  0  0  0  0  0  0  0  0  0
   22.3033    0.5550    0.0000 O   0  0  0  0  0  0  0  0  0  0  0  0
   22.5977   -1.4065    0.0000 O   0  0  0  0  0  0  0  0  0  0  0  0
    4.5329   -2.2124    0.0000 O   0  0  0  0  0  0  0  0  0  0  0  0
   12.2945   -1.6746    0.0000 N   0  0  0  0  0  0  0  0  0  0  0  0
   16.6038   -1.9065    0.0000 N   0  0  0  0  0  0  0  0  0  0  0  0
   10.8254   -2.3318    0.0000 N   0  0  0  0  0  0  0  0  0  0  0  0
   11.7328    0.0594    0.0000 N   0  0  0  0  0  0  0  0  0  0  0  0
   10.0099    0.2375    0.0000 N   0  0  0  0  0  0  0  0  0  0  0  0
    8.9943   -1.1656    0.0000 N   0  0  0  0  0  0  0  0  0  0  0  0
   21.0141   -0.6018    0.0000 N   0  0  0  0  0  0  0  0  0  0  0  0
   21.0141   -2.2112    0.0000 N   0  0  0  0  0  0  0  0  0  0  0  0
   14.7672   -0.9120    0.0000 C   0  0  1  0  0  0  0  0  0  0  0  0
   13.7891   -0.7041    0.0000 C   0  0  2  0  0  0  0  0  0  0  0  0
   14.8717   -1.9065    0.0000 C   0  0  1  0  0  0  0  0  0  0  0  0
   13.2891   -1.5701    0.0000 C   0  0  1  0  0  0  0  0  0  0  0  0
   15.7378   -2.4065    0.0000 C   0  0  0  0  0  0  0  0  0  0  0  0
   11.6300   -0.9353    0.0000 C   0  0  0  0  0  0  0  0  0  0  0  0
   11.7982   -2.5360    0.0000 C   0  0  0  0  0  0  0  0  0  0  0  0
   10.7172   -1.3436    0.0000 C   0  0  0  0  0  0  0  0  0  0  0  0
   17.4698   -2.4065    0.0000 C   0  0  0  0  0  0  0  0  0  0  0  0
    9.9071   -0.7572    0.0000 C   0  0  0  0  0  0  0  0  0  0  0  0
   18.3358   -1.9065    0.0000 C   0  0  0  0  0  0  0  0  0  0  0  0
   10.9228    0.6458    0.0000 C   0  0  0  0  0  0  0  0  0  0  0  0
   19.2019   -2.4065    0.0000 C   0  0  0  0  0  0  0  0  0  0  0  0
   18.3358   -0.9065    0.0000 C   0  0  0  0  0  0  0  0  0  0  0  0
   20.0679   -1.9065    0.0000 C   0  0  0  0  0  0  0  0  0  0  0  0
   20.0679   -0.9065    0.0000 C   0  0  0  0  0  0  0  0  0  0  0  0
    8.1843   -0.5792    0.0000 C   0  0  0  0  0  0  0  0  0  0  0  0
   19.2019   -0.4065    0.0000 C   0  0  0  0  0  0  0  0  0  0  0  0
   21.5977   -1.4065    0.0000 C   0  0  0  0  0  0  0  0  0  0  0  0
    7.2714   -0.9875    0.0000 C   0  0  0  0  0  0  0  0  0  0  0  0
   21.3248    0.3487    0.0000 C   0  0  0  0  0  0  0  0  0  0  0  0
    7.1686   -1.9822    0.0000 C   0  0  0  0  0  0  0  0  0  0  0  0
    6.4614   -0.4011    0.0000 C   0  0  0  0  0  0  0  0  0  0  0  0
    6.2558   -2.3905    0.0000 C   0  0  0  0  0  0  0  0  0  0  0  0
    5.5486   -0.8094    0.0000 C   0  0  0  0  0  0  0  0  0  0  0  0
    5.4458   -1.8041    0.0000 C   0  0  0  0  0  0  0  0  0  0  0  0
   22.6139    1.5055    0.0000 C   0  0  0  0  0  0  0  0  0  0  0  0
   23.5924    1.7117    0.0000 C   0  0  0  0  0  0  0  0  0  0  0  0
   21.9461    2.2498    0.0000 C   0  0  0  0  0  0  0  0  0  0  0  0
   23.9031    2.6622    0.0000 C   0  0  0  0  0  0  0  0  0  0  0  0
   22.2568    3.2003    0.0000 C   0  0  0  0  0  0  0  0  0  0  0  0
    3.7229   -1.6261    0.0000 C   0  0  0  0  0  0  0  0  0  0  0  0
   23.2353    3.4065    0.0000 C   0  0  0  0  0  0  0  0  0  0  0  0
    3.8257   -0.6314    0.0000 C   0  0  0  0  0  0  0  0  0  0  0  0
    2.8100   -2.0344    0.0000 C   0  0  0  0  0  0  0  0  0  0  0  0
    3.0156   -0.0450    0.0000 C   0  0  0  0  0  0  0  0  0  0  0  0
    2.0000   -1.4480    0.0000 C   0  0  0  0  0  0  0  0  0  0  0  0
    2.1028   -0.4533    0.0000 C   0  0  0  0  0  0  0  0  0  0  0  0
   14.6067   -0.3131    0.0000 H   0  0  0  0  0  0  0  0  0  0  0  0
   13.1699   -0.6716    0.0000 H   0  0  0  0  0  0  0  0  0  0  0  0
   14.8393   -2.5257    0.0000 H   0  0  0  0  0  0  0  0  0  0  0  0
   13.0669   -2.1489    0.0000 H   0  0  0  0  0  0  0  0  0  0  0  0
   15.3392   -2.8815    0.0000 H   0  0  0  0  0  0  0  0  0  0  0  0
   16.1363   -2.8815    0.0000 H   0  0  0  0  0  0  0  0  0  0  0  0
   15.3815    0.3636    0.0000 H   0  0  0  0  0  0  0  0  0  0  0  0
   13.7468    0.7111    0.0000 H   0  0  0  0  0  0  0  0  0  0  0  0
   16.6038   -1.2865    0.0000 H   0  0  0  0  0  0  0  0  0  0  0  0
   12.0514   -3.1019    0.0000 H   0  0  0  0  0  0  0  0  0  0  0  0
   10.9865    1.2625    0.0000 H   0  0  0  0  0  0  0  0  0  0  0  0
    8.9306   -1.7823    0.0000 H   0  0  0  0  0  0  0  0  0  0  0  0
   19.2019   -3.0265    0.0000 H   0  0  0  0  0  0  0  0  0  0  0  0
   17.7989   -0.5965    0.0000 H   0  0  0  0  0  0  0  0  0  0  0  0
    8.6295   -0.1477    0.0000 H   0  0  0  0  0  0  0  0  0  0  0  0
    7.8367   -0.0658    0.0000 H   0  0  0  0  0  0  0  0  0  0  0  0
   19.2019    0.2135    0.0000 H   0  0  0  0  0  0  0  0  0  0  0  0
   21.2067   -2.8006    0.0000 H   0  0  0  0  0  0  0  0  0  0  0  0
   21.3042    0.9684    0.0000 H   0  0  0  0  0  0  0  0  0  0  0  0
   20.7110    0.4361    0.0000 H   0  0  0  0  0  0  0  0  0  0  0  0
    7.6708   -2.3458    0.0000 H   0  0  0  0  0  0  0  0  0  0  0  0
    6.5251    0.2156    0.0000 H   0  0  0  0  0  0  0  0  0  0  0  0
    6.1920   -3.0072    0.0000 H   0  0  0  0  0  0  0  0  0  0  0  0
    5.0463   -0.4459    0.0000 H   0  0  0  0  0  0  0  0  0  0  0  0
   24.0065    1.2502    0.0000 H   0  0  0  0  0  0  0  0  0  0  0  0
   21.3394    2.1219    0.0000 H   0  0  0  0  0  0  0  0  0  0  0  0
   24.5098    2.7901    0.0000 H   0  0  0  0  0  0  0  0  0  0  0  0
   21.8427    3.6618    0.0000 H   0  0  0  0  0  0  0  0  0  0  0  0
   23.4279    3.9958    0.0000 H   0  0  0  0  0  0  0  0  0  0  0  0
    4.3916   -0.3782    0.0000 H   0  0  0  0  0  0  0  0  0  0  0  0
    2.7463   -2.6511    0.0000 H   0  0  0  0  0  0  0  0  0  0  0  0
    3.0794    0.5717    0.0000 H   0  0  0  0  0  0  0  0  0  0  0  0
    1.4340   -1.7012    0.0000 H   0  0  0  0  0  0  0  0  0  0  0  0
    1.6006   -0.0897    0.0000 H   0  0  0  0  0  0  0  0  0  0  0  0
  1 18  1  0  0  0  0
  1 19  1  0  0  0  0
 16  2  1  6  0  0  0
  2 60  1  0  0  0  0
 17  3  1  6  0  0  0
  3 61  1  0  0  0  0
  4 24  2  0  0  0  0
  5 36  1  0  0  0  0
  5 42  1  0  0  0  0
  6 34  2  0  0  0  0
  7 41  1  0  0  0  0
  7 47  1  0  0  0  0
 19  8  1  1  0  0  0
  8 21  1  0  0  0  0
  8 22  1  0  0  0  0
  9 20  1  0  0  0  0
  9 24  1  0  0  0  0
  9 62  1  0  0  0  0
 10 22  2  0  0  0  0
 10 23  1  0  0  0  0
 11 21  2  0  0  0  0
 11 27  1  0  0  0  0
 12 25  1  0  0  0  0
 12 27  2  0  0  0  0
 13 25  1  0  0  0  0
 13 32  1  0  0  0  0
 13 65  1  0  0  0  0
 14 31  1  0  0  0  0
 14 34  1  0  0  0  0
 14 36  1  0  0  0  0
 15 30  1  0  0  0  0
 15 34  1  0  0  0  0
 15 71  1  0  0  0  0
 16 17  1  0  0  0  0
 16 18  1  0  0  0  0
 16 54  1  0  0  0  0
 17 19  1  0  0  0  0
 17 55  1  0  0  0  0
 18 20  1  1  0  0  0
 18 56  1  0  0  0  0
 19 57  1  0  0  0  0
 20 58  1  0  0  0  0
 20 59  1  0  0  0  0
 21 23  1  0  0  0  0
 22 63  1  0  0  0  0
 23 25  2  0  0  0  0
 24 26  1  0  0  0  0
 26 28  2  0  0  0  0
 26 29  1  0  0  0  0
 27 64  1  0  0  0  0
 28 30  1  0  0  0  0
 28 66  1  0  0  0  0
 29 33  2  0  0  0  0
 29 67  1  0  0  0  0
 30 31  2  0  0  0  0
 31 33  1  0  0  0  0
 32 35  1  0  0  0  0
 32 68  1  0  0  0  0
 32 69  1  0  0  0  0
 33 70  1  0  0  0  0
 35 37  2  0  0  0  0
 35 38  1  0  0  0  0
 36 72  1  0  0  0  0
 36 73  1  0  0  0  0
 37 39  1  0  0  0  0
 37 74  1  0  0  0  0
 38 40  2  0  0  0  0
 38 75  1  0  0  0  0
 39 41  2  0  0  0  0
 39 76  1  0  0  0  0
 40 41  1  0  0  0  0
 40 77  1  0  0  0  0
 42 43  2  0  0  0  0
 42 44  1  0  0  0  0
 43 45  1  0  0  0  0
 43 78  1  0  0  0  0
 44 46  2  0  0  0  0
 44 79  1  0  0  0  0
 45 48  2  0  0  0  0
 45 80  1  0  0  0  0
 46 48  1  0  0  0  0
 46 81  1  0  0  0  0
 47 49  2  0  0  0  0
 47 50  1  0  0  0  0
 48 82  1  0  0  0  0
 49 51  1  0  0  0  0
 49 83  1  0  0  0  0
 50 52  2  0  0  0  0
 50 84  1  0  0  0  0
 51 53  2  0  0  0  0
 51 85  1  0  0  0  0
 52 53  1  0  0  0  0
 52 86  1  0  0  0  0
 53 87  1  0  0  0  0
M  END
> <PUBCHEM_COMPOUND_CID>
44590530

> <PUBCHEM_COMPOUND_CANONICALIZED>
1

> <PUBCHEM_CACTVS_COMPLEXITY>
1220

> <PUBCHEM_CACTVS_HBOND_ACCEPTOR>
11

> <PUBCHEM_CACTVS_HBOND_DONOR>
5

> <PUBCHEM_CACTVS_ROTATABLE_BOND>
12

> <PUBCHEM_CACTVS_SUBSKEYS>
AAADcfB/+AAAAAAAAAAAAAAAAAAAAWLEgAA8YMGCAAAAAFgB/AAAHgAQCAAADBzhnwY19r/MFgCoAydzdACCiC01MqAJ2KEufNiPfjLE/duffSjv1hPb6ae82QKeKAAAQAAAACBQAACAAAAAQAAAAAAAAA==

> <PUBCHEM_IUPAC_OPENEYE_NAME>
N-[[(2R,3S,4R,5R)-3,4-dihydroxy-5-[6-[(4-phenoxyphenyl)methylamino]purin-9-yl]tetrahydrofuran-2-yl]methyl]-2-oxo-1-(phenoxymethyl)-3H-benzimidazole-5-carboxamide

> <PUBCHEM_IUPAC_CAS_NAME>
N-[[(2R,3S,4R,5R)-3,4-dihydroxy-5-[6-[(4-phenoxyphenyl)methylamino]-9-purinyl]-2-oxolanyl]methyl]-2-oxo-1-(phenoxymethyl)-3H-benzimidazole-5-carboxamide

> <PUBCHEM_IUPAC_NAME_MARKUP>
<I>N</I>-[[(2<I>R</I>,3<I>S</I>,4<I>R</I>,5<I>R</I>)-3,4-dihydroxy-5-[6-[(4-phenoxyphenyl)methylamino]purin-9-yl]oxolan-2-yl]methyl]-2-oxo-1-(phenoxymethyl)-3<I>H</I>-benzimidazole-5-carboxamide

> <PUBCHEM_IUPAC_NAME>
N-[[(2R,3S,4R,5R)-3,4-dihydroxy-5-[6-[(4-phenoxyphenyl)methylamino]purin-9-yl]oxolan-2-yl]methyl]-2-oxo-1-(phenoxymethyl)-3H-benzimidazole-5-carboxamide

> <PUBCHEM_IUPAC_SYSTEMATIC_NAME>
N-[[(2R,3S,4R,5R)-3,4-bis(oxidanyl)-5-[6-[(4-phenoxyphenyl)methylamino]purin-9-yl]oxolan-2-yl]methyl]-2-oxidanylidene-1-(phenoxymethyl)-3H-benzimidazole-5-carboxamide

> <PUBCHEM_IUPAC_TRADITIONAL_NAME>
N-[[(2R,3S,4R,5R)-3,4-dihydroxy-5-[6-[(4-phenoxybenzyl)amino]purin-9-yl]tetrahydrofuran-2-yl]methyl]-2-keto-1-(phenoxymethyl)-3H-benzimidazole-5-carboxamide

> <PUBCHEM_IUPAC_INCHI>
InChI=1S/C38H34N8O7/c47-32-30(19-40-36(49)24-13-16-29-28(17-24)44-38(50)46(29)22-51-25-7-3-1-4-8-25)53-37(33(32)48)45-21-43-31-34(41-20-42-35(31)45)39-18-23-11-14-27(15-12-23)52-26-9-5-2-6-10-26/h1-17,20-21,30,32-33,37,47-48H,18-19,22H2,(H,40,49)(H,44,50)(H,39,41,42)/t30-,32-,33-,37-/m1/s1

> <PUBCHEM_IUPAC_INCHIKEY>
DXBZUPOGZZTMDS-GONXPTGJSA-N

> <PUBCHEM_XLOGP3_AA>
4

> <PUBCHEM_EXACT_MASS>
714.25504545

> <PUBCHEM_MOLECULAR_FORMULA>
C38H34N8O7

> <PUBCHEM_MOLECULAR_WEIGHT>
714.7

> <PUBCHEM_OPENEYE_CAN_SMILES>
C1=CC=C(C=C1)OCN2C3=C(C=C(C=C3)C(=O)NCC4C(C(C(O4)N5C=NC6=C(N=CN=C65)NCC7=CC=C(C=C7)OC8=CC=CC=C8)O)O)NC2=O

> <PUBCHEM_OPENEYE_ISO_SMILES>
C1=CC=C(C=C1)OCN2C3=C(C=C(C=C3)C(=O)NC[C@@H]4[C@H]([C@H]([C@@H](O4)N5C=NC6=C(N=CN=C65)NCC7=CC=C(C=C7)OC8=CC=CC=C8)O)O)NC2=O

> <PUBCHEM_CACTVS_TPSA>
185

> <PUBCHEM_MONOISOTOPIC_WEIGHT>
714.25504545

> <PUBCHEM_TOTAL_CHARGE>
0

> <PUBCHEM_HEAVY_ATOM_COUNT>
53

> <PUBCHEM_ATOM_DEF_STEREO_COUNT>
4

> <PUBCHEM_ATOM_UDEF_STEREO_COUNT>
0

> <PUBCHEM_BOND_DEF_STEREO_COUNT>
0

> <PUBCHEM_BOND_UDEF_STEREO_COUNT>
0

> <PUBCHEM_ISOTOPIC_ATOM_COUNT>
0

> <PUBCHEM_COMPONENT_COUNT>
1

> <PUBCHEM_CACTVS_TAUTO_COUNT>
-1

> <PUBCHEM_COORDINATE_TYPE>
1
5
255

> <PUBCHEM_BONDANNOTATIONS>
10  22  8
10  23  8
11  21  8
11  27  8
12  25  8
12  27  8
14  31  8
14  34  8
15  30  8
15  34  8
18  20  5
16  2  6
21  23  8
23  25  8
26  28  8
26  29  8
28  30  8
29  33  8
17  3  6
30  31  8
31  33  8
35  37  8
35  38  8
37  39  8
38  40  8
39  41  8
40  41  8
42  43  8
42  44  8
43  45  8
44  46  8
45  48  8
46  48  8
47  49  8
47  50  8
49  51  8
50  52  8
51  53  8
52  53  8
19  8  5
8  21  8
8  22  8

$$$$
