 
  -OEChem-10192104102D

 47 48  0     0  0  0  0  0  0999 V2000
    3.4030   -5.3450    0.0000 S   0  0  0  0  0  0  0  0  0  0  0  0
    9.4651    5.1550    0.0000 S   0  0  0  0  0  0  0  0  0  0  0  0
    7.7331   -0.8450    0.0000 O   0  0  0  0  0  0  0  0  0  0  0  0
    3.9030   -6.2110    0.0000 O   0  0  0  0  0  0  0  0  0  0  0  0
    2.9030   -4.4790    0.0000 O   0  0  0  0  0  0  0  0  0  0  0  0
   10.4651    5.1550    0.0000 O   0  0  0  0  0  0  0  0  0  0  0  0
    8.4651    5.1550    0.0000 O   0  0  0  0  0  0  0  0  0  0  0  0
    2.5369   -5.8450    0.0000 N   0  0  0  0  0  0  0  0  0  0  0  0
    9.4651    6.1550    0.0000 N   0  0  0  0  0  0  0  0  0  0  0  0
    4.2690   -4.8450    0.0000 C   0  0  0  0  0  0  0  0  0  0  0  0
    9.4651    4.1550    0.0000 C   0  0  0  0  0  0  0  0  0  0  0  0
    6.0010   -3.8450    0.0000 C   0  0  0  0  0  0  0  0  0  0  0  0
    9.4651    2.1550    0.0000 C   0  0  0  0  0  0  0  0  0  0  0  0
    5.1350   -5.3450    0.0000 C   0  0  0  0  0  0  0  0  0  0  0  0
    8.5991    3.6550    0.0000 C   0  0  0  0  0  0  0  0  0  0  0  0
    4.2690   -3.8450    0.0000 C   0  0  0  0  0  0  0  0  0  0  0  0
   10.3312    3.6550    0.0000 C   0  0  0  0  0  0  0  0  0  0  0  0
    6.0010   -4.8450    0.0000 C   0  0  0  0  0  0  0  0  0  0  0  0
    8.5991    2.6550    0.0000 C   0  0  0  0  0  0  0  0  0  0  0  0
    5.1350   -3.3450    0.0000 C   0  0  0  0  0  0  0  0  0  0  0  0
   10.3312    2.6550    0.0000 C   0  0  0  0  0  0  0  0  0  0  0  0
    6.8671   -3.3450    0.0000 C   0  0  0  0  0  0  0  0  0  0  0  0
    9.4651    1.1550    0.0000 C   0  0  0  0  0  0  0  0  0  0  0  0
    7.7331   -1.8450    0.0000 C   0  0  0  0  0  0  0  0  0  0  0  0
    8.5991   -0.3450    0.0000 C   0  0  0  0  0  0  0  0  0  0  0  0
    6.8671   -2.3450    0.0000 C   0  0  0  0  0  0  0  0  0  0  0  0
    8.5991    0.6550    0.0000 C   0  0  0  0  0  0  0  0  0  0  0  0
    5.1350   -5.9650    0.0000 H   0  0  0  0  0  0  0  0  0  0  0  0
    8.0622    3.9650    0.0000 H   0  0  0  0  0  0  0  0  0  0  0  0
    3.7320   -3.5350    0.0000 H   0  0  0  0  0  0  0  0  0  0  0  0
   10.8681    3.9650    0.0000 H   0  0  0  0  0  0  0  0  0  0  0  0
    6.5380   -5.1550    0.0000 H   0  0  0  0  0  0  0  0  0  0  0  0
    8.0622    2.3450    0.0000 H   0  0  0  0  0  0  0  0  0  0  0  0
    5.1350   -2.7250    0.0000 H   0  0  0  0  0  0  0  0  0  0  0  0
   10.8681    2.3450    0.0000 H   0  0  0  0  0  0  0  0  0  0  0  0
    7.4040   -3.6550    0.0000 H   0  0  0  0  0  0  0  0  0  0  0  0
   10.0021    0.8450    0.0000 H   0  0  0  0  0  0  0  0  0  0  0  0
    7.9451   -2.4276    0.0000 H   0  0  0  0  0  0  0  0  0  0  0  0
    8.3437   -1.7373    0.0000 H   0  0  0  0  0  0  0  0  0  0  0  0
    8.8112   -0.9276    0.0000 H   0  0  0  0  0  0  0  0  0  0  0  0
    9.2097   -0.2373    0.0000 H   0  0  0  0  0  0  0  0  0  0  0  0
    6.3301   -2.0350    0.0000 H   0  0  0  0  0  0  0  0  0  0  0  0
    8.0622    0.9650    0.0000 H   0  0  0  0  0  0  0  0  0  0  0  0
    2.5369   -6.4650    0.0000 H   0  0  0  0  0  0  0  0  0  0  0  0
    2.0000   -5.5350    0.0000 H   0  0  0  0  0  0  0  0  0  0  0  0
   10.0021    6.4650    0.0000 H   0  0  0  0  0  0  0  0  0  0  0  0
    8.9282    6.4650    0.0000 H   0  0  0  0  0  0  0  0  0  0  0  0
  1  4  2  0  0  0  0
  1  5  2  0  0  0  0
  1  8  1  0  0  0  0
  1 10  1  0  0  0  0
  2  6  2  0  0  0  0
  2  7  2  0  0  0  0
  2  9  1  0  0  0  0
  2 11  1  0  0  0  0
  3 24  1  0  0  0  0
  3 25  1  0  0  0  0
  8 44  1  0  0  0  0
  8 45  1  0  0  0  0
  9 46  1  0  0  0  0
  9 47  1  0  0  0  0
 10 14  2  0  0  0  0
 10 16  1  0  0  0  0
 11 15  2  0  0  0  0
 11 17  1  0  0  0  0
 12 18  2  0  0  0  0
 12 20  1  0  0  0  0
 12 22  1  0  0  0  0
 13 19  2  0  0  0  0
 13 21  1  0  0  0  0
 13 23  1  0  0  0  0
 14 18  1  0  0  0  0
 14 28  1  0  0  0  0
 15 19  1  0  0  0  0
 15 29  1  0  0  0  0
 16 20  2  0  0  0  0
 16 30  1  0  0  0  0
 17 21  2  0  0  0  0
 17 31  1  0  0  0  0
 18 32  1  0  0  0  0
 19 33  1  0  0  0  0
 20 34  1  0  0  0  0
 21 35  1  0  0  0  0
 22 26  2  0  0  0  0
 22 36  1  0  0  0  0
 23 27  2  0  0  0  0
 23 37  1  0  0  0  0
 24 26  1  0  0  0  0
 24 38  1  0  0  0  0
 24 39  1  0  0  0  0
 25 27  1  0  0  0  0
 25 40  1  0  0  0  0
 25 41  1  0  0  0  0
 26 42  1  0  0  0  0
 27 43  1  0  0  0  0
M  END
> <PUBCHEM_COMPOUND_CID>
87101851

> <PUBCHEM_COMPOUND_CANONICALIZED>
1

> <PUBCHEM_CACTVS_COMPLEXITY>
642

> <PUBCHEM_CACTVS_HBOND_ACCEPTOR>
7

> <PUBCHEM_CACTVS_HBOND_DONOR>
2

> <PUBCHEM_CACTVS_ROTATABLE_BOND>
8

> <PUBCHEM_CACTVS_SUBSKEYS>
AAADceB7OABgAAAAAAAAAAAAAAAAAAAAAAAwYAAAAAAAAAABQAAAGgQQQAAADACg2AIwAYAABAKAAiBCAHBCABAgAAAIiBgAAIgIJCKAMRCCMAAggAAIqAcAgAAOEAAAAAAAAAAgAAAAAAAAAAAAAAAAAA==

> <PUBCHEM_IUPAC_OPENEYE_NAME>
4-[(E)-3-[(E)-3-(4-sulfamoylphenyl)allyloxy]prop-1-enyl]benzenesulfonamide

> <PUBCHEM_IUPAC_CAS_NAME>
4-[(E)-3-[(E)-3-(4-sulfamoylphenyl)prop-2-enoxy]prop-1-enyl]benzenesulfonamide

> <PUBCHEM_IUPAC_NAME_MARKUP>
4-[(<I>E</I>)-3-[(<I>E</I>)-3-(4-sulfamoylphenyl)prop-2-enoxy]prop-1-enyl]benzenesulfonamide

> <PUBCHEM_IUPAC_NAME>
4-[(E)-3-[(E)-3-(4-sulfamoylphenyl)prop-2-enoxy]prop-1-enyl]benzenesulfonamide

> <PUBCHEM_IUPAC_SYSTEMATIC_NAME>
4-[(E)-3-[(E)-3-(4-sulfamoylphenyl)prop-2-enoxy]prop-1-enyl]benzenesulfonamide

> <PUBCHEM_IUPAC_TRADITIONAL_NAME>
4-[(E)-3-[(E)-3-(4-sulfamoylphenyl)allyloxy]prop-1-enyl]benzenesulfonamide

> <PUBCHEM_IUPAC_INCHI>
InChI=1S/C18H20N2O5S2/c19-26(21,22)17-9-5-15(6-10-17)3-1-13-25-14-2-4-16-7-11-18(12-8-16)27(20,23)24/h1-12H,13-14H2,(H2,19,21,22)(H2,20,23,24)/b3-1+,4-2+

> <PUBCHEM_IUPAC_INCHIKEY>
MLOLMAQJMMRLBA-ZPUQHVIOSA-N

> <PUBCHEM_XLOGP3_AA>
1.5

> <PUBCHEM_EXACT_MASS>
408.08136409

> <PUBCHEM_MOLECULAR_FORMULA>
C18H20N2O5S2

> <PUBCHEM_MOLECULAR_WEIGHT>
408.5

> <PUBCHEM_OPENEYE_CAN_SMILES>
C1=CC(=CC=C1C=CCOCC=CC2=CC=C(C=C2)S(=O)(=O)N)S(=O)(=O)N

> <PUBCHEM_OPENEYE_ISO_SMILES>
C1=CC(=CC=C1/C=C/COC/C=C/C2=CC=C(C=C2)S(=O)(=O)N)S(=O)(=O)N

> <PUBCHEM_CACTVS_TPSA>
146

> <PUBCHEM_MONOISOTOPIC_WEIGHT>
408.08136409

> <PUBCHEM_TOTAL_CHARGE>
0

> <PUBCHEM_HEAVY_ATOM_COUNT>
27

> <PUBCHEM_ATOM_DEF_STEREO_COUNT>
0

> <PUBCHEM_ATOM_UDEF_STEREO_COUNT>
0

> <PUBCHEM_BOND_DEF_STEREO_COUNT>
2

> <PUBCHEM_BOND_UDEF_STEREO_COUNT>
0

> <PUBCHEM_ISOTOPIC_ATOM_COUNT>
0

> <PUBCHEM_COMPONENT_COUNT>
1

> <PUBCHEM_CACTVS_TAUTO_COUNT>
-1

> <PUBCHEM_COORDINATE_TYPE>
1
5
255

> <PUBCHEM_BONDANNOTATIONS>
10  14  8
10  16  8
11  15  8
11  17  8
12  18  8
12  20  8
13  19  8
13  21  8
14  18  8
15  19  8
16  20  8
17  21  8

$$$$
