 
  -OEChem-10192104122D

 56 57  0     0  0  0  0  0  0999 V2000
    4.8100   -6.4952    0.0000 O   0  0  0  0  0  0  0  0  0  0  0  0
    2.3100    6.4952    0.0000 O   0  0  0  0  0  0  0  0  0  0  0  0
    3.3100   -7.3612    0.0000 O   0  0  0  0  0  0  0  0  0  0  0  0
    3.8100    7.3612    0.0000 O   0  0  0  0  0  0  0  0  0  0  0  0
    4.8100    0.4330    0.0000 O   0  0  0  0  0  0  0  0  0  0  0  0
    3.3100   -0.4330    0.0000 N   0  0  0  0  0  0  0  0  0  0  0  0
    3.3100   -5.6292    0.0000 C   0  0  0  0  0  0  0  0  0  0  0  0
    3.8100    5.6292    0.0000 C   0  0  0  0  0  0  0  0  0  0  0  0
    2.4440   -6.1292    0.0000 C   0  0  0  0  0  0  0  0  0  0  0  0
    2.4440   -5.1292    0.0000 C   0  0  0  0  0  0  0  0  0  0  0  0
    4.6760    5.1292    0.0000 C   0  0  0  0  0  0  0  0  0  0  0  0
    4.6760    6.1292    0.0000 C   0  0  0  0  0  0  0  0  0  0  0  0
    3.8100   -4.7631    0.0000 C   0  0  0  0  0  0  0  0  0  0  0  0
    3.3100    4.7631    0.0000 C   0  0  0  0  0  0  0  0  0  0  0  0
    3.8100   -6.4952    0.0000 C   0  0  0  0  0  0  0  0  0  0  0  0
    3.3100    6.4952    0.0000 C   0  0  0  0  0  0  0  0  0  0  0  0
    3.3100   -3.8971    0.0000 C   0  0  0  0  0  0  0  0  0  0  0  0
    3.8100    3.8971    0.0000 C   0  0  0  0  0  0  0  0  0  0  0  0
    3.8100   -3.0311    0.0000 C   0  0  0  0  0  0  0  0  0  0  0  0
    3.3100    3.0311    0.0000 C   0  0  0  0  0  0  0  0  0  0  0  0
    3.3100   -2.1651    0.0000 C   0  0  0  0  0  0  0  0  0  0  0  0
    3.8100    2.1651    0.0000 C   0  0  0  0  0  0  0  0  0  0  0  0
    3.8100   -1.2990    0.0000 C   0  0  0  0  0  0  0  0  0  0  0  0
    3.3100    1.2990    0.0000 C   0  0  0  0  0  0  0  0  0  0  0  0
    3.8100    0.4330    0.0000 C   0  0  0  0  0  0  0  0  0  0  0  0
    1.8334   -6.2368    0.0000 H   0  0  0  0  0  0  0  0  0  0  0  0
    2.6560   -6.7118    0.0000 H   0  0  0  0  0  0  0  0  0  0  0  0
    2.6560   -4.5466    0.0000 H   0  0  0  0  0  0  0  0  0  0  0  0
    1.8334   -5.0215    0.0000 H   0  0  0  0  0  0  0  0  0  0  0  0
    4.4640    4.5466    0.0000 H   0  0  0  0  0  0  0  0  0  0  0  0
    5.2866    5.0215    0.0000 H   0  0  0  0  0  0  0  0  0  0  0  0
    5.2866    6.2368    0.0000 H   0  0  0  0  0  0  0  0  0  0  0  0
    4.4640    6.7118    0.0000 H   0  0  0  0  0  0  0  0  0  0  0  0
    4.2850   -5.1617    0.0000 H   0  0  0  0  0  0  0  0  0  0  0  0
    4.2850   -4.3646    0.0000 H   0  0  0  0  0  0  0  0  0  0  0  0
    2.8350    5.1617    0.0000 H   0  0  0  0  0  0  0  0  0  0  0  0
    2.8350    4.3646    0.0000 H   0  0  0  0  0  0  0  0  0  0  0  0
    2.8350   -3.4986    0.0000 H   0  0  0  0  0  0  0  0  0  0  0  0
    2.8350   -4.2956    0.0000 H   0  0  0  0  0  0  0  0  0  0  0  0
    4.2850    3.4986    0.0000 H   0  0  0  0  0  0  0  0  0  0  0  0
    4.2850    4.2956    0.0000 H   0  0  0  0  0  0  0  0  0  0  0  0
    4.2850   -3.4296    0.0000 H   0  0  0  0  0  0  0  0  0  0  0  0
    4.2850   -2.6326    0.0000 H   0  0  0  0  0  0  0  0  0  0  0  0
    2.8350    3.4296    0.0000 H   0  0  0  0  0  0  0  0  0  0  0  0
    2.8350    2.6326    0.0000 H   0  0  0  0  0  0  0  0  0  0  0  0
    2.8350   -1.7665    0.0000 H   0  0  0  0  0  0  0  0  0  0  0  0
    2.8350   -2.5636    0.0000 H   0  0  0  0  0  0  0  0  0  0  0  0
    4.2850    1.7665    0.0000 H   0  0  0  0  0  0  0  0  0  0  0  0
    4.2850    2.5636    0.0000 H   0  0  0  0  0  0  0  0  0  0  0  0
    5.1200   -7.0321    0.0000 H   0  0  0  0  0  0  0  0  0  0  0  0
    2.0000    7.0321    0.0000 H   0  0  0  0  0  0  0  0  0  0  0  0
    4.2850   -1.6976    0.0000 H   0  0  0  0  0  0  0  0  0  0  0  0
    4.2850   -0.9005    0.0000 H   0  0  0  0  0  0  0  0  0  0  0  0
    2.8350    1.6976    0.0000 H   0  0  0  0  0  0  0  0  0  0  0  0
    2.8350    0.9005    0.0000 H   0  0  0  0  0  0  0  0  0  0  0  0
    2.6900   -0.4330    0.0000 H   0  0  0  0  0  0  0  0  0  0  0  0
  1 15  1  0  0  0  0
  1 50  1  0  0  0  0
  2 16  1  0  0  0  0
  2 51  1  0  0  0  0
  3 15  2  0  0  0  0
  4 16  2  0  0  0  0
  5 25  2  0  0  0  0
  6 23  1  0  0  0  0
  6 25  1  0  0  0  0
  6 56  1  0  0  0  0
  7  9  1  0  0  0  0
  7 10  1  0  0  0  0
  7 13  1  0  0  0  0
  7 15  1  0  0  0  0
  8 11  1  0  0  0  0
  8 12  1  0  0  0  0
  8 14  1  0  0  0  0
  8 16  1  0  0  0  0
  9 10  1  0  0  0  0
  9 26  1  0  0  0  0
  9 27  1  0  0  0  0
 10 28  1  0  0  0  0
 10 29  1  0  0  0  0
 11 12  1  0  0  0  0
 11 30  1  0  0  0  0
 11 31  1  0  0  0  0
 12 32  1  0  0  0  0
 12 33  1  0  0  0  0
 13 17  1  0  0  0  0
 13 34  1  0  0  0  0
 13 35  1  0  0  0  0
 14 18  1  0  0  0  0
 14 36  1  0  0  0  0
 14 37  1  0  0  0  0
 17 19  1  0  0  0  0
 17 38  1  0  0  0  0
 17 39  1  0  0  0  0
 18 20  1  0  0  0  0
 18 40  1  0  0  0  0
 18 41  1  0  0  0  0
 19 21  1  0  0  0  0
 19 42  1  0  0  0  0
 19 43  1  0  0  0  0
 20 22  1  0  0  0  0
 20 44  1  0  0  0  0
 20 45  1  0  0  0  0
 21 23  1  0  0  0  0
 21 46  1  0  0  0  0
 21 47  1  0  0  0  0
 22 24  1  0  0  0  0
 22 48  1  0  0  0  0
 22 49  1  0  0  0  0
 23 52  1  0  0  0  0
 23 53  1  0  0  0  0
 24 25  1  0  0  0  0
 24 54  1  0  0  0  0
 24 55  1  0  0  0  0
M  END
> <PUBCHEM_COMPOUND_CID>
59125144

> <PUBCHEM_COMPOUND_CANONICALIZED>
1

> <PUBCHEM_CACTVS_COMPLEXITY>
494

> <PUBCHEM_CACTVS_HBOND_ACCEPTOR>
5

> <PUBCHEM_CACTVS_HBOND_DONOR>
3

> <PUBCHEM_CACTVS_ROTATABLE_BOND>
14

> <PUBCHEM_CACTVS_SUBSKEYS>
AAADceB6OAAAAAAAAAAAAAAAGDAAAAAAAAAAAAAAAAAAAAAAAAAAHgAQCAAADgDBgAQACALAAgAIAAGQGAAAAAAAAAAAAIEIAAAAABIAgAAEQAAEFgCAAAGYyOCPAAAAAAAAAAAAAAAAAAAAAAAAAAAAAA==

> <PUBCHEM_IUPAC_OPENEYE_NAME>
1-[6-[5-(1-carboxycyclopropyl)pentylamino]-6-oxo-hexyl]cyclopropanecarboxylic acid

> <PUBCHEM_IUPAC_CAS_NAME>
1-[6-[5-(1-carboxycyclopropyl)pentylamino]-6-oxohexyl]-1-cyclopropanecarboxylic acid

> <PUBCHEM_IUPAC_NAME_MARKUP>
1-[6-[5-(1-carboxycyclopropyl)pentylamino]-6-oxohexyl]cyclopropane-1-carboxylic acid

> <PUBCHEM_IUPAC_NAME>
1-[6-[5-(1-carboxycyclopropyl)pentylamino]-6-oxohexyl]cyclopropane-1-carboxylic acid

> <PUBCHEM_IUPAC_SYSTEMATIC_NAME>
1-[6-[5-(1-carboxycyclopropyl)pentylamino]-6-oxidanylidene-hexyl]cyclopropane-1-carboxylic acid

> <PUBCHEM_IUPAC_TRADITIONAL_NAME>
1-[6-[5-(1-carboxycyclopropyl)pentylamino]-6-keto-hexyl]cyclopropanecarboxylic acid

> <PUBCHEM_IUPAC_INCHI>
InChI=1S/C19H31NO5/c21-15(7-3-1-4-8-18(10-11-18)16(22)23)20-14-6-2-5-9-19(12-13-19)17(24)25/h1-14H2,(H,20,21)(H,22,23)(H,24,25)

> <PUBCHEM_IUPAC_INCHIKEY>
QGQYDMZZTNJYMB-UHFFFAOYSA-N

> <PUBCHEM_XLOGP3_AA>
2.6

> <PUBCHEM_EXACT_MASS>
353.22022309

> <PUBCHEM_MOLECULAR_FORMULA>
C19H31NO5

> <PUBCHEM_MOLECULAR_WEIGHT>
353.5

> <PUBCHEM_OPENEYE_CAN_SMILES>
C1CC1(CCCCCC(=O)NCCCCCC2(CC2)C(=O)O)C(=O)O

> <PUBCHEM_OPENEYE_ISO_SMILES>
C1CC1(CCCCCC(=O)NCCCCCC2(CC2)C(=O)O)C(=O)O

> <PUBCHEM_CACTVS_TPSA>
104

> <PUBCHEM_MONOISOTOPIC_WEIGHT>
353.22022309

> <PUBCHEM_TOTAL_CHARGE>
0

> <PUBCHEM_HEAVY_ATOM_COUNT>
25

> <PUBCHEM_ATOM_DEF_STEREO_COUNT>
0

> <PUBCHEM_ATOM_UDEF_STEREO_COUNT>
0

> <PUBCHEM_BOND_DEF_STEREO_COUNT>
0

> <PUBCHEM_BOND_UDEF_STEREO_COUNT>
0

> <PUBCHEM_ISOTOPIC_ATOM_COUNT>
0

> <PUBCHEM_COMPONENT_COUNT>
1

> <PUBCHEM_CACTVS_TAUTO_COUNT>
-1

> <PUBCHEM_COORDINATE_TYPE>
1
5
255

$$$$
