 
  -OEChem-10192103292D

 27 27  0     0  0  0  0  0  0999 V2000
    4.2690   -2.0950    0.0000 O   0  0  0  0  0  0  0  0  0  0  0  0
    2.5369    0.9050    0.0000 O   0  0  0  0  0  0  0  0  0  0  0  0
    3.4030    2.4050    0.0000 O   0  0  0  0  0  0  0  0  0  0  0  0
    6.0010   -2.0950    0.0000 O   0  0  0  0  0  0  0  0  0  0  0  0
    3.4030   -0.5950    0.0000 C   0  0  0  0  0  0  0  0  0  0  0  0
    4.2690    0.9050    0.0000 C   0  0  0  0  0  0  0  0  0  0  0  0
    5.1350   -0.5950    0.0000 C   0  0  0  0  0  0  0  0  0  0  0  0
    4.2690   -1.0950    0.0000 C   0  0  0  0  0  0  0  0  0  0  0  0
    3.4030    0.4050    0.0000 C   0  0  0  0  0  0  0  0  0  0  0  0
    5.1350    0.4050    0.0000 C   0  0  0  0  0  0  0  0  0  0  0  0
    2.5369   -1.0950    0.0000 C   0  0  0  0  0  0  0  0  0  0  0  0
    4.2690    1.9050    0.0000 C   0  0  0  0  0  0  0  0  0  0  0  0
    6.0010   -1.0950    0.0000 C   0  0  0  0  0  0  0  0  0  0  0  0
    5.1350    2.4050    0.0000 C   0  0  0  0  0  0  0  0  0  0  0  0
    6.8671   -0.5950    0.0000 C   0  0  0  0  0  0  0  0  0  0  0  0
    5.6720    0.7150    0.0000 H   0  0  0  0  0  0  0  0  0  0  0  0
    2.2269   -0.5581    0.0000 H   0  0  0  0  0  0  0  0  0  0  0  0
    2.0000   -1.4050    0.0000 H   0  0  0  0  0  0  0  0  0  0  0  0
    2.8469   -1.6319    0.0000 H   0  0  0  0  0  0  0  0  0  0  0  0
    5.4450    1.8681    0.0000 H   0  0  0  0  0  0  0  0  0  0  0  0
    5.6720    2.7150    0.0000 H   0  0  0  0  0  0  0  0  0  0  0  0
    4.8250    2.9419    0.0000 H   0  0  0  0  0  0  0  0  0  0  0  0
    7.1771   -1.1319    0.0000 H   0  0  0  0  0  0  0  0  0  0  0  0
    7.4040   -0.2850    0.0000 H   0  0  0  0  0  0  0  0  0  0  0  0
    6.5571   -0.0581    0.0000 H   0  0  0  0  0  0  0  0  0  0  0  0
    3.7320   -2.4050    0.0000 H   0  0  0  0  0  0  0  0  0  0  0  0
    2.0000    0.5950    0.0000 H   0  0  0  0  0  0  0  0  0  0  0  0
  1  8  1  0  0  0  0
  1 26  1  0  0  0  0
  2  9  1  0  0  0  0
  2 27  1  0  0  0  0
  3 12  2  0  0  0  0
  4 13  2  0  0  0  0
  5  8  2  0  0  0  0
  5  9  1  0  0  0  0
  5 11  1  0  0  0  0
  6  9  2  0  0  0  0
  6 10  1  0  0  0  0
  6 12  1  0  0  0  0
  7  8  1  0  0  0  0
  7 10  2  0  0  0  0
  7 13  1  0  0  0  0
 10 16  1  0  0  0  0
 11 17  1  0  0  0  0
 11 18  1  0  0  0  0
 11 19  1  0  0  0  0
 12 14  1  0  0  0  0
 13 15  1  0  0  0  0
 14 20  1  0  0  0  0
 14 21  1  0  0  0  0
 14 22  1  0  0  0  0
 15 23  1  0  0  0  0
 15 24  1  0  0  0  0
 15 25  1  0  0  0  0
M  END
> <PUBCHEM_COMPOUND_CID>
2775159

> <PUBCHEM_COMPOUND_CANONICALIZED>
1

> <PUBCHEM_CACTVS_COMPLEXITY>
248

> <PUBCHEM_CACTVS_HBOND_ACCEPTOR>
4

> <PUBCHEM_CACTVS_HBOND_DONOR>
2

> <PUBCHEM_CACTVS_ROTATABLE_BOND>
2

> <PUBCHEM_CACTVS_SUBSKEYS>
AAADccBwOAAAAAAAAAAAAAAAAAAAAAAAAAAwAAAAAAAAAAABAAAAGgAACAAADASAmAAyBoAAAgCIAqBSAAACAAAkIAAAiAEECMgIJzaCFBKAcUAl4BUImYeI7uTuIAACCAAIAABAAAQQABAAAAAAAAAAAA==

> <PUBCHEM_IUPAC_OPENEYE_NAME>
1-(5-acetyl-2,4-dihydroxy-3-methyl-phenyl)ethanone

> <PUBCHEM_IUPAC_CAS_NAME>
1-(5-acetyl-2,4-dihydroxy-3-methylphenyl)ethanone

> <PUBCHEM_IUPAC_NAME_MARKUP>
1-(5-acetyl-2,4-dihydroxy-3-methylphenyl)ethanone

> <PUBCHEM_IUPAC_NAME>
1-(5-acetyl-2,4-dihydroxy-3-methylphenyl)ethanone

> <PUBCHEM_IUPAC_SYSTEMATIC_NAME>
1-[5-ethanoyl-3-methyl-2,4-bis(oxidanyl)phenyl]ethanone

> <PUBCHEM_IUPAC_TRADITIONAL_NAME>
1-(5-acetyl-2,4-dihydroxy-3-methyl-phenyl)ethanone

> <PUBCHEM_IUPAC_INCHI>
InChI=1S/C11H12O4/c1-5-10(14)8(6(2)12)4-9(7(3)13)11(5)15/h4,14-15H,1-3H3

> <PUBCHEM_IUPAC_INCHIKEY>
VTXPYYTZBSOMMH-UHFFFAOYSA-N

> <PUBCHEM_XLOGP3_AA>
2

> <PUBCHEM_EXACT_MASS>
208.07355886

> <PUBCHEM_MOLECULAR_FORMULA>
C11H12O4

> <PUBCHEM_MOLECULAR_WEIGHT>
208.21

> <PUBCHEM_OPENEYE_CAN_SMILES>
CC1=C(C(=CC(=C1O)C(=O)C)C(=O)C)O

> <PUBCHEM_OPENEYE_ISO_SMILES>
CC1=C(C(=CC(=C1O)C(=O)C)C(=O)C)O

> <PUBCHEM_CACTVS_TPSA>
74.6

> <PUBCHEM_MONOISOTOPIC_WEIGHT>
208.07355886

> <PUBCHEM_TOTAL_CHARGE>
0

> <PUBCHEM_HEAVY_ATOM_COUNT>
15

> <PUBCHEM_ATOM_DEF_STEREO_COUNT>
0

> <PUBCHEM_ATOM_UDEF_STEREO_COUNT>
0

> <PUBCHEM_BOND_DEF_STEREO_COUNT>
0

> <PUBCHEM_BOND_UDEF_STEREO_COUNT>
0

> <PUBCHEM_ISOTOPIC_ATOM_COUNT>
0

> <PUBCHEM_COMPONENT_COUNT>
1

> <PUBCHEM_CACTVS_TAUTO_COUNT>
-1

> <PUBCHEM_COORDINATE_TYPE>
1
5
255

> <PUBCHEM_BONDANNOTATIONS>
5  8  8
5  9  8
6  10  8
6  9  8
7  10  8
7  8  8

$$$$
