 
  -OEChem-10192103562D

 48 48  0     1  0  0  0  0  0999 V2000
    4.2690   -2.0000    0.0000 O   0  0  0  0  0  0  0  0  0  0  0  0
    6.0010   -2.0000    0.0000 O   0  0  0  0  0  0  0  0  0  0  0  0
    4.2690   -5.0000    0.0000 O   0  0  0  0  0  0  0  0  0  0  0  0
    2.5369   -4.0000    0.0000 O   0  0  0  0  0  0  0  0  0  0  0  0
    6.0010   -4.0000    0.0000 O   0  0  0  0  0  0  0  0  0  0  0  0
    2.5369   -1.0000    0.0000 O   0  0  0  0  0  0  0  0  0  0  0  0
    9.4651    5.0000    0.0000 O   0  0  0  0  0  0  0  0  0  0  0  0
   10.3312    3.5000    0.0000 O   0  0  0  0  0  0  0  0  0  0  0  0
    4.2690   -4.0000    0.0000 C   0  0  3  0  0  0  0  0  0  0  0  0
    3.4030   -3.5000    0.0000 C   0  0  2  0  0  0  0  0  0  0  0  0
    5.1350   -3.5000    0.0000 C   0  0  1  0  0  0  0  0  0  0  0  0
    3.4030   -2.5000    0.0000 C   0  0  3  0  0  0  0  0  0  0  0  0
    5.1350   -2.5000    0.0000 C   0  0  1  0  0  0  0  0  0  0  0  0
    2.5369   -2.0000    0.0000 C   0  0  0  0  0  0  0  0  0  0  0  0
    6.0010   -1.0000    0.0000 C   0  0  0  0  0  0  0  0  0  0  0  0
    6.8671   -0.5000    0.0000 C   0  0  0  0  0  0  0  0  0  0  0  0
    6.8671    0.5000    0.0000 C   0  0  0  0  0  0  0  0  0  0  0  0
    7.7331    1.0000    0.0000 C   0  0  0  0  0  0  0  0  0  0  0  0
    7.7331    2.0000    0.0000 C   0  0  0  0  0  0  0  0  0  0  0  0
    8.5991    2.5000    0.0000 C   0  0  0  0  0  0  0  0  0  0  0  0
    8.5991    3.5000    0.0000 C   0  0  0  0  0  0  0  0  0  0  0  0
    9.4651    4.0000    0.0000 C   0  0  0  0  0  0  0  0  0  0  0  0
    3.7320   -4.3100    0.0000 H   0  0  0  0  0  0  0  0  0  0  0  0
    3.4030   -4.1200    0.0000 H   0  0  0  0  0  0  0  0  0  0  0  0
    5.1350   -4.1200    0.0000 H   0  0  0  0  0  0  0  0  0  0  0  0
    3.4030   -1.8800    0.0000 H   0  0  0  0  0  0  0  0  0  0  0  0
    5.1350   -1.8800    0.0000 H   0  0  0  0  0  0  0  0  0  0  0  0
    1.9264   -1.8923    0.0000 H   0  0  0  0  0  0  0  0  0  0  0  0
    2.3249   -2.5826    0.0000 H   0  0  0  0  0  0  0  0  0  0  0  0
    5.7890   -0.4174    0.0000 H   0  0  0  0  0  0  0  0  0  0  0  0
    5.3905   -1.1077    0.0000 H   0  0  0  0  0  0  0  0  0  0  0  0
    7.0791   -1.0826    0.0000 H   0  0  0  0  0  0  0  0  0  0  0  0
    7.4776   -0.3923    0.0000 H   0  0  0  0  0  0  0  0  0  0  0  0
    6.6550    1.0826    0.0000 H   0  0  0  0  0  0  0  0  0  0  0  0
    6.2565    0.3923    0.0000 H   0  0  0  0  0  0  0  0  0  0  0  0
    3.7320   -5.3100    0.0000 H   0  0  0  0  0  0  0  0  0  0  0  0
    2.0000   -3.6900    0.0000 H   0  0  0  0  0  0  0  0  0  0  0  0
    6.5380   -3.6900    0.0000 H   0  0  0  0  0  0  0  0  0  0  0  0
    7.9451    0.4174    0.0000 H   0  0  0  0  0  0  0  0  0  0  0  0
    8.3437    1.1077    0.0000 H   0  0  0  0  0  0  0  0  0  0  0  0
    7.5210    2.5826    0.0000 H   0  0  0  0  0  0  0  0  0  0  0  0
    7.1225    1.8923    0.0000 H   0  0  0  0  0  0  0  0  0  0  0  0
    8.8112    1.9174    0.0000 H   0  0  0  0  0  0  0  0  0  0  0  0
    9.2097    2.6077    0.0000 H   0  0  0  0  0  0  0  0  0  0  0  0
    2.0000   -0.6900    0.0000 H   0  0  0  0  0  0  0  0  0  0  0  0
    8.3871    4.0826    0.0000 H   0  0  0  0  0  0  0  0  0  0  0  0
    7.9885    3.3923    0.0000 H   0  0  0  0  0  0  0  0  0  0  0  0
   10.0021    5.3100    0.0000 H   0  0  0  0  0  0  0  0  0  0  0  0
  1 12  1  0  0  0  0
  1 13  1  0  0  0  0
 13  2  1  1  0  0  0
  2 15  1  0  0  0  0
  3  9  1  0  0  0  0
  3 36  1  0  0  0  0
 10  4  1  1  0  0  0
  4 37  1  0  0  0  0
 11  5  1  1  0  0  0
  5 38  1  0  0  0  0
  6 14  1  0  0  0  0
  6 45  1  0  0  0  0
  7 22  1  0  0  0  0
  7 48  1  0  0  0  0
  8 22  2  0  0  0  0
  9 10  1  0  0  0  0
  9 11  1  0  0  0  0
  9 23  1  0  0  0  0
 10 12  1  0  0  0  0
 10 24  1  0  0  0  0
 11 13  1  0  0  0  0
 11 25  1  0  0  0  0
 12 14  1  0  0  0  0
 12 26  1  0  0  0  0
 13 27  1  0  0  0  0
 14 28  1  0  0  0  0
 14 29  1  0  0  0  0
 15 16  1  0  0  0  0
 15 30  1  0  0  0  0
 15 31  1  0  0  0  0
 16 17  1  0  0  0  0
 16 32  1  0  0  0  0
 16 33  1  0  0  0  0
 17 18  1  0  0  0  0
 17 34  1  0  0  0  0
 17 35  1  0  0  0  0
 18 19  1  0  0  0  0
 18 39  1  0  0  0  0
 18 40  1  0  0  0  0
 19 20  1  0  0  0  0
 19 41  1  0  0  0  0
 19 42  1  0  0  0  0
 20 21  1  0  0  0  0
 20 43  1  0  0  0  0
 20 44  1  0  0  0  0
 21 22  1  0  0  0  0
 21 46  1  0  0  0  0
 21 47  1  0  0  0  0
M  END
> <PUBCHEM_COMPOUND_CID>
45039321

> <PUBCHEM_COMPOUND_CANONICALIZED>
1

> <PUBCHEM_CACTVS_COMPLEXITY>
324

> <PUBCHEM_CACTVS_HBOND_ACCEPTOR>
8

> <PUBCHEM_CACTVS_HBOND_DONOR>
5

> <PUBCHEM_CACTVS_ROTATABLE_BOND>
10

> <PUBCHEM_CACTVS_SUBSKEYS>
AAADceBwPAAAAAAAAAAAAAAAAAAAAAAAAAAkAAAAAAAAAAAAAAAAGgAACAAACBSwgAMACAAABgAIAACQCAAAAAAAAAAAAAEAAAAREBIAAAAiQAAFAAAHAAHI6KyAAAAAAAAAAAAAAAAAAAAAAAAAAAAAAA==

> <PUBCHEM_IUPAC_OPENEYE_NAME>
8-[(2R,3S,5R)-3,4,5-trihydroxy-6-(hydroxymethyl)tetrahydropyran-2-yl]oxyoctanoic acid

> <PUBCHEM_IUPAC_CAS_NAME>
8-[[(2R,3S,5R)-3,4,5-trihydroxy-6-(hydroxymethyl)-2-oxanyl]oxy]octanoic acid

> <PUBCHEM_IUPAC_NAME_MARKUP>
8-[(2<I>R</I>,3<I>S</I>,5<I>R</I>)-3,4,5-trihydroxy-6-(hydroxymethyl)oxan-2-yl]oxyoctanoic acid

> <PUBCHEM_IUPAC_NAME>
8-[(2R,3S,5R)-3,4,5-trihydroxy-6-(hydroxymethyl)oxan-2-yl]oxyoctanoic acid

> <PUBCHEM_IUPAC_SYSTEMATIC_NAME>
8-[(2R,3S,5R)-6-(hydroxymethyl)-3,4,5-tris(oxidanyl)oxan-2-yl]oxyoctanoic acid

> <PUBCHEM_IUPAC_TRADITIONAL_NAME>
8-[(2R,3S,5R)-3,4,5-trihydroxy-6-methylol-tetrahydropyran-2-yl]oxycaprylic acid

> <PUBCHEM_IUPAC_INCHI>
InChI=1S/C14H26O8/c15-8-9-11(18)12(19)13(20)14(22-9)21-7-5-3-1-2-4-6-10(16)17/h9,11-15,18-20H,1-8H2,(H,16,17)/t9?,11-,12?,13-,14+/m0/s1

> <PUBCHEM_IUPAC_INCHIKEY>
QKLDRTOYXHQCCM-XJOBKQKPSA-N

> <PUBCHEM_XLOGP3_AA>
-0.4

> <PUBCHEM_EXACT_MASS>
322.16276778

> <PUBCHEM_MOLECULAR_FORMULA>
C14H26O8

> <PUBCHEM_MOLECULAR_WEIGHT>
322.35

> <PUBCHEM_OPENEYE_CAN_SMILES>
C(CCCC(=O)O)CCCOC1C(C(C(C(O1)CO)O)O)O

> <PUBCHEM_OPENEYE_ISO_SMILES>
C(CCCC(=O)O)CCCO[C@H]1[C@H](C([C@H](C(O1)CO)O)O)O

> <PUBCHEM_CACTVS_TPSA>
137

> <PUBCHEM_MONOISOTOPIC_WEIGHT>
322.16276778

> <PUBCHEM_TOTAL_CHARGE>
0

> <PUBCHEM_HEAVY_ATOM_COUNT>
22

> <PUBCHEM_ATOM_DEF_STEREO_COUNT>
3

> <PUBCHEM_ATOM_UDEF_STEREO_COUNT>
2

> <PUBCHEM_BOND_DEF_STEREO_COUNT>
0

> <PUBCHEM_BOND_UDEF_STEREO_COUNT>
0

> <PUBCHEM_ISOTOPIC_ATOM_COUNT>
0

> <PUBCHEM_COMPONENT_COUNT>
1

> <PUBCHEM_CACTVS_TAUTO_COUNT>
-1

> <PUBCHEM_COORDINATE_TYPE>
1
5
255

> <PUBCHEM_BONDANNOTATIONS>
12  14  3
13  2  5
9  3  3
10  4  5
11  5  5

$$$$
