 
  -OEChem-10192103332D

 59 58  0     0  0  0  0  0  0999 V2000
   10.3312    0.2500    0.0000 O   0  0  0  0  0  0  0  0  0  0  0  0
   13.7953    0.2500    0.0000 O   0  0  0  0  0  0  0  0  0  0  0  0
    9.4651   -1.2500    0.0000 O   0  0  0  0  0  0  0  0  0  0  0  0
   14.6613   -1.2500    0.0000 O   0  0  0  0  0  0  0  0  0  0  0  0
    2.5369   -0.2500    0.0000 O   0  0  0  0  0  0  0  0  0  0  0  0
   21.5895   -0.2500    0.0000 O   0  0  0  0  0  0  0  0  0  0  0  0
    3.4030    1.2500    0.0000 O   0  0  0  0  0  0  0  0  0  0  0  0
   20.7235    1.2500    0.0000 O   0  0  0  0  0  0  0  0  0  0  0  0
    6.8671    0.2500    0.0000 C   0  0  0  0  0  0  0  0  0  0  0  0
   17.2594    0.2500    0.0000 C   0  0  0  0  0  0  0  0  0  0  0  0
    6.0010   -0.2500    0.0000 C   0  0  0  0  0  0  0  0  0  0  0  0
   18.1254   -0.2500    0.0000 C   0  0  0  0  0  0  0  0  0  0  0  0
    7.7331   -0.2500    0.0000 C   0  0  0  0  0  0  0  0  0  0  0  0
   16.3933   -0.2500    0.0000 C   0  0  0  0  0  0  0  0  0  0  0  0
    5.1350    0.2500    0.0000 C   0  0  0  0  0  0  0  0  0  0  0  0
   18.9914    0.2500    0.0000 C   0  0  0  0  0  0  0  0  0  0  0  0
    8.5991    0.2500    0.0000 C   0  0  0  0  0  0  0  0  0  0  0  0
   15.5273    0.2500    0.0000 C   0  0  0  0  0  0  0  0  0  0  0  0
    4.2690   -0.2500    0.0000 C   0  0  0  0  0  0  0  0  0  0  0  0
   19.8574   -0.2500    0.0000 C   0  0  0  0  0  0  0  0  0  0  0  0
    9.4651   -0.2500    0.0000 C   0  0  0  0  0  0  0  0  0  0  0  0
   14.6613   -0.2500    0.0000 C   0  0  0  0  0  0  0  0  0  0  0  0
   12.0632    0.2500    0.0000 C   0  0  0  0  0  0  0  0  0  0  0  0
   11.1972   -0.2500    0.0000 C   0  0  0  0  0  0  0  0  0  0  0  0
   12.9292   -0.2500    0.0000 C   0  0  0  0  0  0  0  0  0  0  0  0
    3.4030    0.2500    0.0000 C   0  0  0  0  0  0  0  0  0  0  0  0
   20.7235    0.2500    0.0000 C   0  0  0  0  0  0  0  0  0  0  0  0
    7.2656    0.7249    0.0000 H   0  0  0  0  0  0  0  0  0  0  0  0
    6.4685    0.7249    0.0000 H   0  0  0  0  0  0  0  0  0  0  0  0
   17.6579    0.7249    0.0000 H   0  0  0  0  0  0  0  0  0  0  0  0
   16.8608    0.7249    0.0000 H   0  0  0  0  0  0  0  0  0  0  0  0
    5.6025   -0.7249    0.0000 H   0  0  0  0  0  0  0  0  0  0  0  0
    6.3996   -0.7249    0.0000 H   0  0  0  0  0  0  0  0  0  0  0  0
   17.7269   -0.7249    0.0000 H   0  0  0  0  0  0  0  0  0  0  0  0
   18.5239   -0.7249    0.0000 H   0  0  0  0  0  0  0  0  0  0  0  0
    7.3346   -0.7249    0.0000 H   0  0  0  0  0  0  0  0  0  0  0  0
    8.1316   -0.7249    0.0000 H   0  0  0  0  0  0  0  0  0  0  0  0
   15.9948   -0.7249    0.0000 H   0  0  0  0  0  0  0  0  0  0  0  0
   16.7919   -0.7249    0.0000 H   0  0  0  0  0  0  0  0  0  0  0  0
    5.5335    0.7249    0.0000 H   0  0  0  0  0  0  0  0  0  0  0  0
    4.7365    0.7249    0.0000 H   0  0  0  0  0  0  0  0  0  0  0  0
   19.3899    0.7249    0.0000 H   0  0  0  0  0  0  0  0  0  0  0  0
   18.5929    0.7249    0.0000 H   0  0  0  0  0  0  0  0  0  0  0  0
    8.9976    0.7249    0.0000 H   0  0  0  0  0  0  0  0  0  0  0  0
    8.2006    0.7249    0.0000 H   0  0  0  0  0  0  0  0  0  0  0  0
   15.9258    0.7249    0.0000 H   0  0  0  0  0  0  0  0  0  0  0  0
   15.1288    0.7249    0.0000 H   0  0  0  0  0  0  0  0  0  0  0  0
    3.8705   -0.7249    0.0000 H   0  0  0  0  0  0  0  0  0  0  0  0
    4.6675   -0.7249    0.0000 H   0  0  0  0  0  0  0  0  0  0  0  0
   19.4589   -0.7249    0.0000 H   0  0  0  0  0  0  0  0  0  0  0  0
   20.2560   -0.7249    0.0000 H   0  0  0  0  0  0  0  0  0  0  0  0
   12.4617    0.7249    0.0000 H   0  0  0  0  0  0  0  0  0  0  0  0
   11.6647    0.7249    0.0000 H   0  0  0  0  0  0  0  0  0  0  0  0
   10.7987   -0.7249    0.0000 H   0  0  0  0  0  0  0  0  0  0  0  0
   11.5957   -0.7249    0.0000 H   0  0  0  0  0  0  0  0  0  0  0  0
   12.5307   -0.7249    0.0000 H   0  0  0  0  0  0  0  0  0  0  0  0
   13.3278   -0.7249    0.0000 H   0  0  0  0  0  0  0  0  0  0  0  0
    2.0000    0.0600    0.0000 H   0  0  0  0  0  0  0  0  0  0  0  0
   22.1264    0.0600    0.0000 H   0  0  0  0  0  0  0  0  0  0  0  0
  1 21  1  0  0  0  0
  1 24  1  0  0  0  0
  2 22  1  0  0  0  0
  2 25  1  0  0  0  0
  3 21  2  0  0  0  0
  4 22  2  0  0  0  0
  5 26  1  0  0  0  0
  5 58  1  0  0  0  0
  6 27  1  0  0  0  0
  6 59  1  0  0  0  0
  7 26  2  0  0  0  0
  8 27  2  0  0  0  0
  9 11  1  0  0  0  0
  9 13  1  0  0  0  0
  9 28  1  0  0  0  0
  9 29  1  0  0  0  0
 10 12  1  0  0  0  0
 10 14  1  0  0  0  0
 10 30  1  0  0  0  0
 10 31  1  0  0  0  0
 11 15  1  0  0  0  0
 11 32  1  0  0  0  0
 11 33  1  0  0  0  0
 12 16  1  0  0  0  0
 12 34  1  0  0  0  0
 12 35  1  0  0  0  0
 13 17  1  0  0  0  0
 13 36  1  0  0  0  0
 13 37  1  0  0  0  0
 14 18  1  0  0  0  0
 14 38  1  0  0  0  0
 14 39  1  0  0  0  0
 15 19  1  0  0  0  0
 15 40  1  0  0  0  0
 15 41  1  0  0  0  0
 16 20  1  0  0  0  0
 16 42  1  0  0  0  0
 16 43  1  0  0  0  0
 17 21  1  0  0  0  0
 17 44  1  0  0  0  0
 17 45  1  0  0  0  0
 18 22  1  0  0  0  0
 18 46  1  0  0  0  0
 18 47  1  0  0  0  0
 19 26  1  0  0  0  0
 19 48  1  0  0  0  0
 19 49  1  0  0  0  0
 20 27  1  0  0  0  0
 20 50  1  0  0  0  0
 20 51  1  0  0  0  0
 23 24  1  0  0  0  0
 23 25  1  0  0  0  0
 23 52  1  0  0  0  0
 23 53  1  0  0  0  0
 24 54  1  0  0  0  0
 24 55  1  0  0  0  0
 25 56  1  0  0  0  0
 25 57  1  0  0  0  0
M  END
> <PUBCHEM_COMPOUND_CID>
87977127

> <PUBCHEM_COMPOUND_CANONICALIZED>
1

> <PUBCHEM_CACTVS_COMPLEXITY>
407

> <PUBCHEM_CACTVS_HBOND_ACCEPTOR>
8

> <PUBCHEM_CACTVS_HBOND_DONOR>
2

> <PUBCHEM_CACTVS_ROTATABLE_BOND>
20

> <PUBCHEM_CACTVS_SUBSKEYS>
AAADcfB4PAAAAAAAAAAAAAAAAAAAAAAAAAAAAAAAAAAAAAAAAAAAGgAACAAACACggAIACAAABgAIAACQCAAAAAAAAAAAAAEAAAAAABIAAAACQAAFAAAAAAGIyKCAAAAAAAAAAAAAAAAAAAAAAAAAAAAAAA==

> <PUBCHEM_IUPAC_OPENEYE_NAME>
8-[3-(7-carboxyheptanoyloxy)propoxy]-8-oxo-octanoic acid

> <PUBCHEM_IUPAC_CAS_NAME>
8-[3-(7-carboxy-1-oxoheptoxy)propoxy]-8-oxooctanoic acid

> <PUBCHEM_IUPAC_NAME_MARKUP>
8-[3-(7-carboxyheptanoyloxy)propoxy]-8-oxooctanoic acid

> <PUBCHEM_IUPAC_NAME>
8-[3-(7-carboxyheptanoyloxy)propoxy]-8-oxooctanoic acid

> <PUBCHEM_IUPAC_SYSTEMATIC_NAME>
8-oxidanylidene-8-[3-(8-oxidanyl-8-oxidanylidene-octanoyl)oxypropoxy]octanoic acid

> <PUBCHEM_IUPAC_TRADITIONAL_NAME>
8-[3-(7-carboxyheptanoyloxy)propoxy]-8-keto-caprylic acid

> <PUBCHEM_IUPAC_INCHI>
InChI=1S/C19H32O8/c20-16(21)10-5-1-3-7-12-18(24)26-14-9-15-27-19(25)13-8-4-2-6-11-17(22)23/h1-15H2,(H,20,21)(H,22,23)

> <PUBCHEM_IUPAC_INCHIKEY>
XYWFIHTYENQPCP-UHFFFAOYSA-N

> <PUBCHEM_XLOGP3_AA>
2.8

> <PUBCHEM_EXACT_MASS>
388.20971797

> <PUBCHEM_MOLECULAR_FORMULA>
C19H32O8

> <PUBCHEM_MOLECULAR_WEIGHT>
388.5

> <PUBCHEM_OPENEYE_CAN_SMILES>
C(CCCC(=O)OCCCOC(=O)CCCCCCC(=O)O)CCC(=O)O

> <PUBCHEM_OPENEYE_ISO_SMILES>
C(CCCC(=O)OCCCOC(=O)CCCCCCC(=O)O)CCC(=O)O

> <PUBCHEM_CACTVS_TPSA>
127

> <PUBCHEM_MONOISOTOPIC_WEIGHT>
388.20971797

> <PUBCHEM_TOTAL_CHARGE>
0

> <PUBCHEM_HEAVY_ATOM_COUNT>
27

> <PUBCHEM_ATOM_DEF_STEREO_COUNT>
0

> <PUBCHEM_ATOM_UDEF_STEREO_COUNT>
0

> <PUBCHEM_BOND_DEF_STEREO_COUNT>
0

> <PUBCHEM_BOND_UDEF_STEREO_COUNT>
0

> <PUBCHEM_ISOTOPIC_ATOM_COUNT>
0

> <PUBCHEM_COMPONENT_COUNT>
1

> <PUBCHEM_CACTVS_TAUTO_COUNT>
-1

> <PUBCHEM_COORDINATE_TYPE>
1
5
255

$$$$
