 
  -OEChem-10192103482D

 54 55  0     0  0  0  0  0  0999 V2000
    4.5000   -6.0622    0.0000 O   0  0  0  0  0  0  0  0  0  0  0  0
    4.5000    6.0622    0.0000 O   0  0  0  0  0  0  0  0  0  0  0  0
    3.0000   -6.9282    0.0000 O   0  0  0  0  0  0  0  0  0  0  0  0
    3.0000    6.9282    0.0000 O   0  0  0  0  0  0  0  0  0  0  0  0
    2.0000    0.0000    0.0000 O   0  0  0  0  0  0  0  0  0  0  0  0
    3.0000   -5.1962    0.0000 C   0  0  0  0  0  0  0  0  0  0  0  0
    3.0000    5.1962    0.0000 C   0  0  0  0  0  0  0  0  0  0  0  0
    2.1340   -5.6962    0.0000 C   0  0  0  0  0  0  0  0  0  0  0  0
    2.1340   -4.6962    0.0000 C   0  0  0  0  0  0  0  0  0  0  0  0
    2.1340    5.6962    0.0000 C   0  0  0  0  0  0  0  0  0  0  0  0
    2.1340    4.6962    0.0000 C   0  0  0  0  0  0  0  0  0  0  0  0
    3.5000   -4.3301    0.0000 C   0  0  0  0  0  0  0  0  0  0  0  0
    3.5000    4.3301    0.0000 C   0  0  0  0  0  0  0  0  0  0  0  0
    3.5000   -6.0622    0.0000 C   0  0  0  0  0  0  0  0  0  0  0  0
    3.5000    6.0622    0.0000 C   0  0  0  0  0  0  0  0  0  0  0  0
    3.0000   -3.4641    0.0000 C   0  0  0  0  0  0  0  0  0  0  0  0
    3.0000    3.4641    0.0000 C   0  0  0  0  0  0  0  0  0  0  0  0
    3.5000   -2.5981    0.0000 C   0  0  0  0  0  0  0  0  0  0  0  0
    3.5000    2.5981    0.0000 C   0  0  0  0  0  0  0  0  0  0  0  0
    3.0000   -1.7320    0.0000 C   0  0  0  0  0  0  0  0  0  0  0  0
    3.0000    1.7320    0.0000 C   0  0  0  0  0  0  0  0  0  0  0  0
    3.5000   -0.8660    0.0000 C   0  0  0  0  0  0  0  0  0  0  0  0
    3.5000    0.8660    0.0000 C   0  0  0  0  0  0  0  0  0  0  0  0
    3.0000    0.0000    0.0000 C   0  0  0  0  0  0  0  0  0  0  0  0
    1.5234   -5.8038    0.0000 H   0  0  0  0  0  0  0  0  0  0  0  0
    2.3460   -6.2788    0.0000 H   0  0  0  0  0  0  0  0  0  0  0  0
    2.3460   -4.1135    0.0000 H   0  0  0  0  0  0  0  0  0  0  0  0
    1.5234   -4.5885    0.0000 H   0  0  0  0  0  0  0  0  0  0  0  0
    2.3460    6.2788    0.0000 H   0  0  0  0  0  0  0  0  0  0  0  0
    1.5234    5.8038    0.0000 H   0  0  0  0  0  0  0  0  0  0  0  0
    1.5234    4.5885    0.0000 H   0  0  0  0  0  0  0  0  0  0  0  0
    2.3460    4.1135    0.0000 H   0  0  0  0  0  0  0  0  0  0  0  0
    3.9750   -4.7287    0.0000 H   0  0  0  0  0  0  0  0  0  0  0  0
    3.9750   -3.9316    0.0000 H   0  0  0  0  0  0  0  0  0  0  0  0
    3.9750    3.9316    0.0000 H   0  0  0  0  0  0  0  0  0  0  0  0
    3.9750    4.7287    0.0000 H   0  0  0  0  0  0  0  0  0  0  0  0
    2.5250   -3.0656    0.0000 H   0  0  0  0  0  0  0  0  0  0  0  0
    2.5250   -3.8626    0.0000 H   0  0  0  0  0  0  0  0  0  0  0  0
    2.5250    3.8626    0.0000 H   0  0  0  0  0  0  0  0  0  0  0  0
    2.5250    3.0656    0.0000 H   0  0  0  0  0  0  0  0  0  0  0  0
    3.9750   -2.9966    0.0000 H   0  0  0  0  0  0  0  0  0  0  0  0
    3.9750   -2.1996    0.0000 H   0  0  0  0  0  0  0  0  0  0  0  0
    3.9750    2.1996    0.0000 H   0  0  0  0  0  0  0  0  0  0  0  0
    3.9750    2.9966    0.0000 H   0  0  0  0  0  0  0  0  0  0  0  0
    2.5250   -1.3335    0.0000 H   0  0  0  0  0  0  0  0  0  0  0  0
    2.5250   -2.1306    0.0000 H   0  0  0  0  0  0  0  0  0  0  0  0
    2.5250    2.1306    0.0000 H   0  0  0  0  0  0  0  0  0  0  0  0
    2.5250    1.3335    0.0000 H   0  0  0  0  0  0  0  0  0  0  0  0
    4.8100   -6.5991    0.0000 H   0  0  0  0  0  0  0  0  0  0  0  0
    4.8100    6.5991    0.0000 H   0  0  0  0  0  0  0  0  0  0  0  0
    3.9750   -1.2646    0.0000 H   0  0  0  0  0  0  0  0  0  0  0  0
    3.9750   -0.4675    0.0000 H   0  0  0  0  0  0  0  0  0  0  0  0
    3.9750    0.4675    0.0000 H   0  0  0  0  0  0  0  0  0  0  0  0
    3.9750    1.2646    0.0000 H   0  0  0  0  0  0  0  0  0  0  0  0
  1 14  1  0  0  0  0
  1 49  1  0  0  0  0
  2 15  1  0  0  0  0
  2 50  1  0  0  0  0
  3 14  2  0  0  0  0
  4 15  2  0  0  0  0
  5 24  2  0  0  0  0
  6  8  1  0  0  0  0
  6  9  1  0  0  0  0
  6 12  1  0  0  0  0
  6 14  1  0  0  0  0
  7 10  1  0  0  0  0
  7 11  1  0  0  0  0
  7 13  1  0  0  0  0
  7 15  1  0  0  0  0
  8  9  1  0  0  0  0
  8 25  1  0  0  0  0
  8 26  1  0  0  0  0
  9 27  1  0  0  0  0
  9 28  1  0  0  0  0
 10 11  1  0  0  0  0
 10 29  1  0  0  0  0
 10 30  1  0  0  0  0
 11 31  1  0  0  0  0
 11 32  1  0  0  0  0
 12 16  1  0  0  0  0
 12 33  1  0  0  0  0
 12 34  1  0  0  0  0
 13 17  1  0  0  0  0
 13 35  1  0  0  0  0
 13 36  1  0  0  0  0
 16 18  1  0  0  0  0
 16 37  1  0  0  0  0
 16 38  1  0  0  0  0
 17 19  1  0  0  0  0
 17 39  1  0  0  0  0
 17 40  1  0  0  0  0
 18 20  1  0  0  0  0
 18 41  1  0  0  0  0
 18 42  1  0  0  0  0
 19 21  1  0  0  0  0
 19 43  1  0  0  0  0
 19 44  1  0  0  0  0
 20 22  1  0  0  0  0
 20 45  1  0  0  0  0
 20 46  1  0  0  0  0
 21 23  1  0  0  0  0
 21 47  1  0  0  0  0
 21 48  1  0  0  0  0
 22 24  1  0  0  0  0
 22 51  1  0  0  0  0
 22 52  1  0  0  0  0
 23 24  1  0  0  0  0
 23 53  1  0  0  0  0
 23 54  1  0  0  0  0
M  END
> <PUBCHEM_COMPOUND_CID>
11450603

> <PUBCHEM_COMPOUND_CANONICALIZED>
1

> <PUBCHEM_CACTVS_COMPLEXITY>
432

> <PUBCHEM_CACTVS_HBOND_ACCEPTOR>
5

> <PUBCHEM_CACTVS_HBOND_DONOR>
2

> <PUBCHEM_CACTVS_ROTATABLE_BOND>
14

> <PUBCHEM_CACTVS_SUBSKEYS>
AAADceB4OAAAAAAAAAAAAAAAGDAAAAAAAAAAAAAAAAAAAAAAAAAAGgAACAAADgSAgAAACAAAAgAIAICQCAAAAAAAAAAAAAEAAAAAABIAAAAAQAAEAAAAAAGIyOCPAAAAAAAAAAAAAAAAAAAAAAAAAAAAAA==

> <PUBCHEM_IUPAC_OPENEYE_NAME>
1-[11-(1-carboxycyclopropyl)-6-oxo-undecyl]cyclopropanecarboxylic acid

> <PUBCHEM_IUPAC_CAS_NAME>
1-[11-(1-carboxycyclopropyl)-6-oxoundecyl]-1-cyclopropanecarboxylic acid

> <PUBCHEM_IUPAC_NAME_MARKUP>
1-[11-(1-carboxycyclopropyl)-6-oxoundecyl]cyclopropane-1-carboxylic acid

> <PUBCHEM_IUPAC_NAME>
1-[11-(1-carboxycyclopropyl)-6-oxoundecyl]cyclopropane-1-carboxylic acid

> <PUBCHEM_IUPAC_SYSTEMATIC_NAME>
1-[11-(1-carboxycyclopropyl)-6-oxidanylidene-undecyl]cyclopropane-1-carboxylic acid

> <PUBCHEM_IUPAC_TRADITIONAL_NAME>
1-[11-(1-carboxycyclopropyl)-6-keto-undecyl]cyclopropanecarboxylic acid

> <PUBCHEM_IUPAC_INCHI>
InChI=1S/C19H30O5/c20-15(7-3-1-5-9-18(11-12-18)16(21)22)8-4-2-6-10-19(13-14-19)17(23)24/h1-14H2,(H,21,22)(H,23,24)

> <PUBCHEM_IUPAC_INCHIKEY>
YSMSTLCCKPXYIS-UHFFFAOYSA-N

> <PUBCHEM_XLOGP3_AA>
3.1

> <PUBCHEM_EXACT_MASS>
338.20932405

> <PUBCHEM_MOLECULAR_FORMULA>
C19H30O5

> <PUBCHEM_MOLECULAR_WEIGHT>
338.4

> <PUBCHEM_OPENEYE_CAN_SMILES>
C1CC1(CCCCCC(=O)CCCCCC2(CC2)C(=O)O)C(=O)O

> <PUBCHEM_OPENEYE_ISO_SMILES>
C1CC1(CCCCCC(=O)CCCCCC2(CC2)C(=O)O)C(=O)O

> <PUBCHEM_CACTVS_TPSA>
91.7

> <PUBCHEM_MONOISOTOPIC_WEIGHT>
338.20932405

> <PUBCHEM_TOTAL_CHARGE>
0

> <PUBCHEM_HEAVY_ATOM_COUNT>
24

> <PUBCHEM_ATOM_DEF_STEREO_COUNT>
0

> <PUBCHEM_ATOM_UDEF_STEREO_COUNT>
0

> <PUBCHEM_BOND_DEF_STEREO_COUNT>
0

> <PUBCHEM_BOND_UDEF_STEREO_COUNT>
0

> <PUBCHEM_ISOTOPIC_ATOM_COUNT>
0

> <PUBCHEM_COMPONENT_COUNT>
1

> <PUBCHEM_CACTVS_TAUTO_COUNT>
-1

> <PUBCHEM_COORDINATE_TYPE>
1
5
255

$$$$
