 
  -OEChem-10192104362D

 28 27  0     0  0  0  0  0  0999 V2000
    6.3301    0.0280    0.0000 S   0  0  0  0  0  0  0  0  0  0  0  0
    3.7320   -0.4720    0.0000 P   0  0  0  0  0  0  0  0  0  0  0  0
    2.8660   -0.9720    0.0000 O   0  0  0  0  0  0  0  0  0  0  0  0
    3.2320    0.3940    0.0000 O   0  0  0  0  0  0  0  0  0  0  0  0
    7.1962    0.5280    0.0000 O   0  0  0  0  0  0  0  0  0  0  0  0
    4.2320   -1.3380    0.0000 O   0  0  0  0  0  0  0  0  0  0  0  0
    6.8301   -0.8380    0.0000 O   0  0  0  0  0  0  0  0  0  0  0  0
    5.8301    0.8940    0.0000 O   0  0  0  0  0  0  0  0  0  0  0  0
    4.5981    0.0280    0.0000 C   0  0  0  0  0  0  0  0  0  0  0  0
    5.4641   -0.4720    0.0000 C   0  0  0  0  0  0  0  0  0  0  0  0
    2.0000   -0.4720    0.0000 C   0  0  0  0  0  0  0  0  0  0  0  0
    3.7320    1.2601    0.0000 C   0  0  0  0  0  0  0  0  0  0  0  0
    8.0622    0.0280    0.0000 C   0  0  0  0  0  0  0  0  0  0  0  0
    8.9282    0.5280    0.0000 C   0  0  0  0  0  0  0  0  0  0  0  0
    9.7942    1.0280    0.0000 C   0  0  0  0  0  0  0  0  0  0  0  0
    4.9966    0.5030    0.0000 H   0  0  0  0  0  0  0  0  0  0  0  0
    4.1996    0.5030    0.0000 H   0  0  0  0  0  0  0  0  0  0  0  0
    5.0656   -0.9469    0.0000 H   0  0  0  0  0  0  0  0  0  0  0  0
    5.8626   -0.9469    0.0000 H   0  0  0  0  0  0  0  0  0  0  0  0
    2.3100    0.0649    0.0000 H   0  0  0  0  0  0  0  0  0  0  0  0
    1.4631   -0.1620    0.0000 H   0  0  0  0  0  0  0  0  0  0  0  0
    1.6900   -1.0089    0.0000 H   0  0  0  0  0  0  0  0  0  0  0  0
    4.2690    0.9501    0.0000 H   0  0  0  0  0  0  0  0  0  0  0  0
    4.0420    1.7970    0.0000 H   0  0  0  0  0  0  0  0  0  0  0  0
    3.1951    1.5701    0.0000 H   0  0  0  0  0  0  0  0  0  0  0  0
    7.6636   -0.4469    0.0000 H   0  0  0  0  0  0  0  0  0  0  0  0
    8.4607   -0.4469    0.0000 H   0  0  0  0  0  0  0  0  0  0  0  0
   10.3312    1.3380    0.0000 H   0  0  0  0  0  0  0  0  0  0  0  0
  1  5  1  0  0  0  0
  1  7  2  0  0  0  0
  1  8  2  0  0  0  0
  1 10  1  0  0  0  0
  2  3  1  0  0  0  0
  2  4  1  0  0  0  0
  2  6  2  0  0  0  0
  2  9  1  0  0  0  0
  3 11  1  0  0  0  0
  4 12  1  0  0  0  0
  5 13  1  0  0  0  0
  9 10  1  0  0  0  0
  9 16  1  0  0  0  0
  9 17  1  0  0  0  0
 10 18  1  0  0  0  0
 10 19  1  0  0  0  0
 11 20  1  0  0  0  0
 11 21  1  0  0  0  0
 11 22  1  0  0  0  0
 12 23  1  0  0  0  0
 12 24  1  0  0  0  0
 12 25  1  0  0  0  0
 13 14  1  0  0  0  0
 13 26  1  0  0  0  0
 13 27  1  0  0  0  0
 14 15  3  0  0  0  0
 15 28  1  0  0  0  0
M  END
> <PUBCHEM_COMPOUND_CID>
89235604

> <PUBCHEM_COMPOUND_CANONICALIZED>
1

> <PUBCHEM_CACTVS_COMPLEXITY>
364

> <PUBCHEM_CACTVS_HBOND_ACCEPTOR>
6

> <PUBCHEM_CACTVS_HBOND_DONOR>
0

> <PUBCHEM_CACTVS_ROTATABLE_BOND>
7

> <PUBCHEM_CACTVS_SUBSKEYS>
AAADccBgOAJAAAAAAAAAAAAAAAAAAAAAAAAAAAAAAAAAAAAAAAAAGgwAACAACACswAKCAAAAARJAWAAAAPBAAAAAAAAAAAAAAAAAAAAAAAAAAAAAAAAAAAAAAAAAAAAAAAAAAAAAAAAAAAAAAAAAAAAAAA==

> <PUBCHEM_IUPAC_OPENEYE_NAME>
prop-2-ynyl 2-dimethoxyphosphorylethanesulfonate

> <PUBCHEM_IUPAC_CAS_NAME>
2-dimethoxyphosphorylethanesulfonic acid prop-2-ynyl ester

> <PUBCHEM_IUPAC_NAME_MARKUP>
prop-2-ynyl 2-dimethoxyphosphorylethanesulfonate

> <PUBCHEM_IUPAC_NAME>
prop-2-ynyl 2-dimethoxyphosphorylethanesulfonate

> <PUBCHEM_IUPAC_SYSTEMATIC_NAME>
prop-2-ynyl 2-dimethoxyphosphorylethanesulfonate

> <PUBCHEM_IUPAC_TRADITIONAL_NAME>
2-dimethoxyphosphorylethanesulfonic acid propargyl ester

> <PUBCHEM_IUPAC_INCHI>
InChI=1S/C7H13O6PS/c1-4-5-13-15(9,10)7-6-14(8,11-2)12-3/h1H,5-7H2,2-3H3

> <PUBCHEM_IUPAC_INCHIKEY>
DNVMBPHCPQPOGX-UHFFFAOYSA-N

> <PUBCHEM_XLOGP3_AA>
-1

> <PUBCHEM_EXACT_MASS>
256.01704630

> <PUBCHEM_MOLECULAR_FORMULA>
C7H13O6PS

> <PUBCHEM_MOLECULAR_WEIGHT>
256.22

> <PUBCHEM_OPENEYE_CAN_SMILES>
COP(=O)(CCS(=O)(=O)OCC#C)OC

> <PUBCHEM_OPENEYE_ISO_SMILES>
COP(=O)(CCS(=O)(=O)OCC#C)OC

> <PUBCHEM_CACTVS_TPSA>
87.3

> <PUBCHEM_MONOISOTOPIC_WEIGHT>
256.01704630

> <PUBCHEM_TOTAL_CHARGE>
0

> <PUBCHEM_HEAVY_ATOM_COUNT>
15

> <PUBCHEM_ATOM_DEF_STEREO_COUNT>
0

> <PUBCHEM_ATOM_UDEF_STEREO_COUNT>
0

> <PUBCHEM_BOND_DEF_STEREO_COUNT>
0

> <PUBCHEM_BOND_UDEF_STEREO_COUNT>
0

> <PUBCHEM_ISOTOPIC_ATOM_COUNT>
0

> <PUBCHEM_COMPONENT_COUNT>
1

> <PUBCHEM_CACTVS_TAUTO_COUNT>
-1

> <PUBCHEM_COORDINATE_TYPE>
1
5
255

$$$$
