 
  -OEChem-10192104342D

 35 34  0     0  0  0  0  0  0999 V2000
    7.7331    0.3450    0.0000 O   0  0  0  0  0  0  0  0  0  0  0  0
   10.3312   -0.1550    0.0000 O   0  0  0  0  0  0  0  0  0  0  0  0
    5.1350   -0.1550    0.0000 O   0  0  0  0  0  0  0  0  0  0  0  0
   12.9292    0.3450    0.0000 O   0  0  0  0  0  0  0  0  0  0  0  0
    2.5369    0.3450    0.0000 O   0  0  0  0  0  0  0  0  0  0  0  0
    3.4030   -1.1550    0.0000 O   0  0  0  0  0  0  0  0  0  0  0  0
    8.5991   -0.1550    0.0000 C   0  0  0  0  0  0  0  0  0  0  0  0
    9.4651    0.3450    0.0000 C   0  0  0  0  0  0  0  0  0  0  0  0
    6.8671   -0.1550    0.0000 C   0  0  0  0  0  0  0  0  0  0  0  0
   11.1972    0.3450    0.0000 C   0  0  0  0  0  0  0  0  0  0  0  0
    6.0010    0.3450    0.0000 C   0  0  0  0  0  0  0  0  0  0  0  0
   12.0632   -0.1550    0.0000 C   0  0  0  0  0  0  0  0  0  0  0  0
    4.2690    0.3450    0.0000 C   0  0  0  0  0  0  0  0  0  0  0  0
   13.7953   -0.1550    0.0000 C   0  0  0  0  0  0  0  0  0  0  0  0
    3.4030   -0.1550    0.0000 C   0  0  0  0  0  0  0  0  0  0  0  0
   14.6613    0.3450    0.0000 C   0  0  0  0  0  0  0  0  0  0  0  0
   15.5273    0.8450    0.0000 C   0  0  0  0  0  0  0  0  0  0  0  0
    8.2006   -0.6299    0.0000 H   0  0  0  0  0  0  0  0  0  0  0  0
    8.9976   -0.6299    0.0000 H   0  0  0  0  0  0  0  0  0  0  0  0
    9.8637    0.8199    0.0000 H   0  0  0  0  0  0  0  0  0  0  0  0
    9.0666    0.8199    0.0000 H   0  0  0  0  0  0  0  0  0  0  0  0
    6.4685   -0.6299    0.0000 H   0  0  0  0  0  0  0  0  0  0  0  0
    7.2656   -0.6299    0.0000 H   0  0  0  0  0  0  0  0  0  0  0  0
   11.5957    0.8199    0.0000 H   0  0  0  0  0  0  0  0  0  0  0  0
   10.7987    0.8199    0.0000 H   0  0  0  0  0  0  0  0  0  0  0  0
    6.3996    0.8199    0.0000 H   0  0  0  0  0  0  0  0  0  0  0  0
    5.6025    0.8199    0.0000 H   0  0  0  0  0  0  0  0  0  0  0  0
   11.6647   -0.6299    0.0000 H   0  0  0  0  0  0  0  0  0  0  0  0
   12.4617   -0.6299    0.0000 H   0  0  0  0  0  0  0  0  0  0  0  0
    4.6675    0.8199    0.0000 H   0  0  0  0  0  0  0  0  0  0  0  0
    3.8705    0.8199    0.0000 H   0  0  0  0  0  0  0  0  0  0  0  0
   13.3967   -0.6299    0.0000 H   0  0  0  0  0  0  0  0  0  0  0  0
   14.1938   -0.6299    0.0000 H   0  0  0  0  0  0  0  0  0  0  0  0
    2.0000    0.0350    0.0000 H   0  0  0  0  0  0  0  0  0  0  0  0
   16.0643    1.1550    0.0000 H   0  0  0  0  0  0  0  0  0  0  0  0
  1  7  1  0  0  0  0
  1  9  1  0  0  0  0
  2  8  1  0  0  0  0
  2 10  1  0  0  0  0
  3 11  1  0  0  0  0
  3 13  1  0  0  0  0
  4 12  1  0  0  0  0
  4 14  1  0  0  0  0
  5 15  1  0  0  0  0
  5 34  1  0  0  0  0
  6 15  2  0  0  0  0
  7  8  1  0  0  0  0
  7 18  1  0  0  0  0
  7 19  1  0  0  0  0
  8 20  1  0  0  0  0
  8 21  1  0  0  0  0
  9 11  1  0  0  0  0
  9 22  1  0  0  0  0
  9 23  1  0  0  0  0
 10 12  1  0  0  0  0
 10 24  1  0  0  0  0
 10 25  1  0  0  0  0
 11 26  1  0  0  0  0
 11 27  1  0  0  0  0
 12 28  1  0  0  0  0
 12 29  1  0  0  0  0
 13 15  1  0  0  0  0
 13 30  1  0  0  0  0
 13 31  1  0  0  0  0
 14 16  1  0  0  0  0
 14 32  1  0  0  0  0
 14 33  1  0  0  0  0
 16 17  3  0  0  0  0
 17 35  1  0  0  0  0
M  END
> <PUBCHEM_COMPOUND_CID>
91757748

> <PUBCHEM_COMPOUND_CANONICALIZED>
1

> <PUBCHEM_CACTVS_COMPLEXITY>
231

> <PUBCHEM_CACTVS_HBOND_ACCEPTOR>
6

> <PUBCHEM_CACTVS_HBOND_DONOR>
1

> <PUBCHEM_CACTVS_ROTATABLE_BOND>
12

> <PUBCHEM_CACTVS_SUBSKEYS>
AAADceBwOAAAAAAAAAAAAAAAAAAAAAAAAAAAAAAAAAAAAAAAAAAAGgAACAAACACggAIACAAABgBIGACQCAIAAAAAAAAAAABAAAABAAAAAAQCAAAAAAADAAAAAAAAAAAAAAAAAAAAAAAAAAAAAAAAAAAAAA==

> <PUBCHEM_IUPAC_OPENEYE_NAME>
2-[2-[2-(2-prop-2-ynoxyethoxy)ethoxy]ethoxy]acetic acid

> <PUBCHEM_IUPAC_CAS_NAME>
2-[2-[2-(2-prop-2-ynoxyethoxy)ethoxy]ethoxy]acetic acid

> <PUBCHEM_IUPAC_NAME_MARKUP>
2-[2-[2-(2-prop-2-ynoxyethoxy)ethoxy]ethoxy]acetic acid

> <PUBCHEM_IUPAC_NAME>
2-[2-[2-(2-prop-2-ynoxyethoxy)ethoxy]ethoxy]acetic acid

> <PUBCHEM_IUPAC_SYSTEMATIC_NAME>
2-[2-[2-(2-prop-2-ynoxyethoxy)ethoxy]ethoxy]ethanoic acid

> <PUBCHEM_IUPAC_TRADITIONAL_NAME>
2-[2-[2-(2-propargyloxyethoxy)ethoxy]ethoxy]acetic acid

> <PUBCHEM_IUPAC_INCHI>
InChI=1S/C11H18O6/c1-2-3-14-4-5-15-6-7-16-8-9-17-10-11(12)13/h1H,3-10H2,(H,12,13)

> <PUBCHEM_IUPAC_INCHIKEY>
MJRNNISHHNMYAE-UHFFFAOYSA-N

> <PUBCHEM_XLOGP3_AA>
-0.7

> <PUBCHEM_EXACT_MASS>
246.11033829

> <PUBCHEM_MOLECULAR_FORMULA>
C11H18O6

> <PUBCHEM_MOLECULAR_WEIGHT>
246.26

> <PUBCHEM_OPENEYE_CAN_SMILES>
C#CCOCCOCCOCCOCC(=O)O

> <PUBCHEM_OPENEYE_ISO_SMILES>
C#CCOCCOCCOCCOCC(=O)O

> <PUBCHEM_CACTVS_TPSA>
74.2

> <PUBCHEM_MONOISOTOPIC_WEIGHT>
246.11033829

> <PUBCHEM_TOTAL_CHARGE>
0

> <PUBCHEM_HEAVY_ATOM_COUNT>
17

> <PUBCHEM_ATOM_DEF_STEREO_COUNT>
0

> <PUBCHEM_ATOM_UDEF_STEREO_COUNT>
0

> <PUBCHEM_BOND_DEF_STEREO_COUNT>
0

> <PUBCHEM_BOND_UDEF_STEREO_COUNT>
0

> <PUBCHEM_ISOTOPIC_ATOM_COUNT>
0

> <PUBCHEM_COMPONENT_COUNT>
1

> <PUBCHEM_CACTVS_TAUTO_COUNT>
-1

> <PUBCHEM_COORDINATE_TYPE>
1
5
255

$$$$
