 
  -OEChem-10192104012D

 33 32  0     1  0  0  0  0  0999 V2000
    4.5981   -0.5950    0.0000 O   0  0  0  0  0  0  0  0  0  0  0  0
   10.6603    0.9050    0.0000 O   0  0  0  0  0  0  0  0  0  0  0  0
    9.7942   -0.5950    0.0000 O   0  0  0  0  0  0  0  0  0  0  0  0
    5.4641    0.9050    0.0000 C   0  0  0  0  0  0  0  0  0  0  0  0
    4.5981    0.4050    0.0000 C   0  0  3  0  0  0  0  0  0  0  0  0
    6.3301    0.4050    0.0000 C   0  0  0  0  0  0  0  0  0  0  0  0
    7.1962    0.9050    0.0000 C   0  0  0  0  0  0  0  0  0  0  0  0
    3.7320    0.9050    0.0000 C   0  0  0  0  0  0  0  0  0  0  0  0
    8.0622    0.4050    0.0000 C   0  0  0  0  0  0  0  0  0  0  0  0
    2.8660    0.4050    0.0000 C   0  0  0  0  0  0  0  0  0  0  0  0
    8.9282    0.9050    0.0000 C   0  0  0  0  0  0  0  0  0  0  0  0
    2.0000    0.9050    0.0000 C   0  0  0  0  0  0  0  0  0  0  0  0
    9.7942    0.4050    0.0000 C   0  0  0  0  0  0  0  0  0  0  0  0
    5.8626    1.3800    0.0000 H   0  0  0  0  0  0  0  0  0  0  0  0
    5.0656    1.3800    0.0000 H   0  0  0  0  0  0  0  0  0  0  0  0
    5.1350    0.0950    0.0000 H   0  0  0  0  0  0  0  0  0  0  0  0
    5.9316   -0.0699    0.0000 H   0  0  0  0  0  0  0  0  0  0  0  0
    6.7287   -0.0699    0.0000 H   0  0  0  0  0  0  0  0  0  0  0  0
    7.5947    1.3800    0.0000 H   0  0  0  0  0  0  0  0  0  0  0  0
    6.7976    1.3800    0.0000 H   0  0  0  0  0  0  0  0  0  0  0  0
    4.1306    1.3800    0.0000 H   0  0  0  0  0  0  0  0  0  0  0  0
    3.3335    1.3800    0.0000 H   0  0  0  0  0  0  0  0  0  0  0  0
    7.6636   -0.0699    0.0000 H   0  0  0  0  0  0  0  0  0  0  0  0
    8.4607   -0.0699    0.0000 H   0  0  0  0  0  0  0  0  0  0  0  0
    2.4675   -0.0699    0.0000 H   0  0  0  0  0  0  0  0  0  0  0  0
    3.2646   -0.0699    0.0000 H   0  0  0  0  0  0  0  0  0  0  0  0
    9.3267    1.3800    0.0000 H   0  0  0  0  0  0  0  0  0  0  0  0
    8.5297    1.3800    0.0000 H   0  0  0  0  0  0  0  0  0  0  0  0
    4.0611   -0.9050    0.0000 H   0  0  0  0  0  0  0  0  0  0  0  0
    2.3100    1.4419    0.0000 H   0  0  0  0  0  0  0  0  0  0  0  0
    1.4631    1.2150    0.0000 H   0  0  0  0  0  0  0  0  0  0  0  0
    1.6900    0.3681    0.0000 H   0  0  0  0  0  0  0  0  0  0  0  0
   11.1972    0.5950    0.0000 H   0  0  0  0  0  0  0  0  0  0  0  0
  1  5  1  0  0  0  0
  1 29  1  0  0  0  0
  2 13  1  0  0  0  0
  2 33  1  0  0  0  0
  3 13  2  0  0  0  0
  4  5  1  0  0  0  0
  4  6  1  0  0  0  0
  4 14  1  0  0  0  0
  4 15  1  0  0  0  0
  5  8  1  0  0  0  0
  5 16  1  0  0  0  0
  6  7  1  0  0  0  0
  6 17  1  0  0  0  0
  6 18  1  0  0  0  0
  7  9  1  0  0  0  0
  7 19  1  0  0  0  0
  7 20  1  0  0  0  0
  8 10  1  0  0  0  0
  8 21  1  0  0  0  0
  8 22  1  0  0  0  0
  9 11  1  0  0  0  0
  9 23  1  0  0  0  0
  9 24  1  0  0  0  0
 10 12  1  0  0  0  0
 10 25  1  0  0  0  0
 10 26  1  0  0  0  0
 11 13  1  0  0  0  0
 11 27  1  0  0  0  0
 11 28  1  0  0  0  0
 12 30  1  0  0  0  0
 12 31  1  0  0  0  0
 12 32  1  0  0  0  0
M  END
> <PUBCHEM_COMPOUND_CID>
5312737

> <PUBCHEM_COMPOUND_CANONICALIZED>
1

> <PUBCHEM_CACTVS_COMPLEXITY>
134

> <PUBCHEM_CACTVS_HBOND_ACCEPTOR>
3

> <PUBCHEM_CACTVS_HBOND_DONOR>
2

> <PUBCHEM_CACTVS_ROTATABLE_BOND>
8

> <PUBCHEM_CACTVS_SUBSKEYS>
AAADceBwMAAAAAAAAAAAAAAAAAAAAAAAAAAAAAAAAAAAAAAAAAAAGgAACAAACBSggAICCAAAAgAIAACQCAAAAAAAAAAAAAEAAAAAEBIAAAAAQAAEAAAAAAGIyKCAAAAAAAAAAAAAAAAAAAAAAAAAAAAAAA==

> <PUBCHEM_IUPAC_OPENEYE_NAME>
7-hydroxydecanoic acid

> <PUBCHEM_IUPAC_CAS_NAME>
7-hydroxydecanoic acid

> <PUBCHEM_IUPAC_NAME_MARKUP>
7-hydroxydecanoic acid

> <PUBCHEM_IUPAC_NAME>
7-hydroxydecanoic acid

> <PUBCHEM_IUPAC_SYSTEMATIC_NAME>
7-oxidanyldecanoic acid

> <PUBCHEM_IUPAC_TRADITIONAL_NAME>
7-hydroxycapric acid

> <PUBCHEM_IUPAC_INCHI>
InChI=1S/C10H20O3/c1-2-6-9(11)7-4-3-5-8-10(12)13/h9,11H,2-8H2,1H3,(H,12,13)

> <PUBCHEM_IUPAC_INCHIKEY>
BUAGALXJUKFYCZ-UHFFFAOYSA-N

> <PUBCHEM_XLOGP3_AA>
2

> <PUBCHEM_EXACT_MASS>
188.14124450

> <PUBCHEM_MOLECULAR_FORMULA>
C10H20O3

> <PUBCHEM_MOLECULAR_WEIGHT>
188.26

> <PUBCHEM_OPENEYE_CAN_SMILES>
CCCC(CCCCCC(=O)O)O

> <PUBCHEM_OPENEYE_ISO_SMILES>
CCCC(CCCCCC(=O)O)O

> <PUBCHEM_CACTVS_TPSA>
57.5

> <PUBCHEM_MONOISOTOPIC_WEIGHT>
188.14124450

> <PUBCHEM_TOTAL_CHARGE>
0

> <PUBCHEM_HEAVY_ATOM_COUNT>
13

> <PUBCHEM_ATOM_DEF_STEREO_COUNT>
0

> <PUBCHEM_ATOM_UDEF_STEREO_COUNT>
1

> <PUBCHEM_BOND_DEF_STEREO_COUNT>
0

> <PUBCHEM_BOND_UDEF_STEREO_COUNT>
0

> <PUBCHEM_ISOTOPIC_ATOM_COUNT>
0

> <PUBCHEM_COMPONENT_COUNT>
1

> <PUBCHEM_CACTVS_TAUTO_COUNT>
-1

> <PUBCHEM_COORDINATE_TYPE>
1
5
255

> <PUBCHEM_BONDANNOTATIONS>
5  1  3

$$$$
