 
  -OEChem-10192104362D

 34 33  0     1  0  0  0  0  0999 V2000
    4.5981    1.1340    0.0000 S   0  0  0  0  0  0  0  0  0  0  0  0
    4.2320   -0.2321    0.0000 S   0  0  0  0  0  0  0  0  0  0  0  0
    3.7320    0.6340    0.0000 P   0  0  0  0  0  0  0  0  0  0  0  0
    8.9282    0.6340    0.0000 P   0  0  0  0  0  0  0  0  0  0  0  0
    7.1962    0.6340    0.0000 O   0  0  0  0  0  0  0  0  0  0  0  0
    2.8660    0.1340    0.0000 O   0  0  0  0  0  0  0  0  0  0  0  0
    3.2320    1.5000    0.0000 O   0  0  0  0  0  0  0  0  0  0  0  0
    6.3301   -1.8660    0.0000 O   0  0  0  0  0  0  0  0  0  0  0  0
    6.3301    2.1340    0.0000 O   0  0  0  0  0  0  0  0  0  0  0  0
    7.1962   -0.3660    0.0000 O   0  0  0  0  0  0  0  0  0  0  0  0
    5.4641    0.6340    0.0000 C   0  0  3  0  0  0  0  0  0  0  0  0
    5.4641   -0.3660    0.0000 C   0  0  0  0  0  0  0  0  0  0  0  0
    6.3301    1.1340    0.0000 C   0  0  0  0  0  0  0  0  0  0  0  0
    6.3301   -0.8660    0.0000 C   0  0  0  0  0  0  0  0  0  0  0  0
    8.0622    1.1340    0.0000 C   0  0  0  0  0  0  0  0  0  0  0  0
    2.0000    0.6340    0.0000 C   0  0  0  0  0  0  0  0  0  0  0  0
    3.7320    2.3660    0.0000 C   0  0  0  0  0  0  0  0  0  0  0  0
    7.1962   -2.3660    0.0000 C   0  0  0  0  0  0  0  0  0  0  0  0
    4.9272    0.3240    0.0000 H   0  0  0  0  0  0  0  0  0  0  0  0
    4.8535   -0.2584    0.0000 H   0  0  0  0  0  0  0  0  0  0  0  0
    5.2520   -0.9486    0.0000 H   0  0  0  0  0  0  0  0  0  0  0  0
    8.4607    1.6089    0.0000 H   0  0  0  0  0  0  0  0  0  0  0  0
    7.6636    1.6089    0.0000 H   0  0  0  0  0  0  0  0  0  0  0  0
    2.3100    1.1709    0.0000 H   0  0  0  0  0  0  0  0  0  0  0  0
    1.4631    0.9440    0.0000 H   0  0  0  0  0  0  0  0  0  0  0  0
    1.6900    0.0970    0.0000 H   0  0  0  0  0  0  0  0  0  0  0  0
    4.2690    2.0560    0.0000 H   0  0  0  0  0  0  0  0  0  0  0  0
    4.0420    2.9030    0.0000 H   0  0  0  0  0  0  0  0  0  0  0  0
    3.1951    2.6760    0.0000 H   0  0  0  0  0  0  0  0  0  0  0  0
    6.8862   -2.9030    0.0000 H   0  0  0  0  0  0  0  0  0  0  0  0
    7.7331   -2.6760    0.0000 H   0  0  0  0  0  0  0  0  0  0  0  0
    7.5062   -1.8291    0.0000 H   0  0  0  0  0  0  0  0  0  0  0  0
    9.4651    0.9440    0.0000 H   0  0  0  0  0  0  0  0  0  0  0  0
    8.9282    0.0140    0.0000 H   0  0  0  0  0  0  0  0  0  0  0  0
  1  3  1  0  0  0  0
  1 11  1  0  0  0  0
  2  3  2  0  0  0  0
  3  6  1  0  0  0  0
  3  7  1  0  0  0  0
  4 15  1  0  0  0  0
  4 33  1  0  0  0  0
  4 34  1  0  0  0  0
  5 13  1  0  0  0  0
  5 15  1  0  0  0  0
  6 16  1  0  0  0  0
  7 17  1  0  0  0  0
  8 14  1  0  0  0  0
  8 18  1  0  0  0  0
  9 13  2  0  0  0  0
 10 14  2  0  0  0  0
 11 12  1  0  0  0  0
 11 13  1  0  0  0  0
 11 19  1  0  0  0  0
 12 14  1  0  0  0  0
 12 20  1  0  0  0  0
 12 21  1  0  0  0  0
 15 22  1  0  0  0  0
 15 23  1  0  0  0  0
 16 24  1  0  0  0  0
 16 25  1  0  0  0  0
 16 26  1  0  0  0  0
 17 27  1  0  0  0  0
 17 28  1  0  0  0  0
 17 29  1  0  0  0  0
 18 30  1  0  0  0  0
 18 31  1  0  0  0  0
 18 32  1  0  0  0  0
M  END
> <PUBCHEM_COMPOUND_CID>
88574948

> <PUBCHEM_COMPOUND_CANONICALIZED>
1

> <PUBCHEM_CACTVS_COMPLEXITY>
330

> <PUBCHEM_CACTVS_HBOND_ACCEPTOR>
8

> <PUBCHEM_CACTVS_HBOND_DONOR>
0

> <PUBCHEM_CACTVS_ROTATABLE_BOND>
10

> <PUBCHEM_CACTVS_SUBSKEYS>
AAADceBwOANgAAAAAAAAAAAAAAAAAAAAAAAAAAAAAAAAAAAAAAAAGgwAACAQCACEwAKCCAAABRAIAACQCAAAAAAAAAAAAAEAAAAAABAAAAAAAAAEAAAAAABDAAAAAAAAAAAAAAAAAAAAAAAAAAAAAAAAAA==

> <PUBCHEM_IUPAC_OPENEYE_NAME>
O4-methyl O1-(phosphanylmethyl) 2-dimethoxyphosphinothioylsulfanylbutanedioate

> <PUBCHEM_IUPAC_CAS_NAME>
2-(dimethoxyphosphinothioylthio)butanedioic acid O4-methyl ester O1-(phosphinomethyl) ester

> <PUBCHEM_IUPAC_NAME_MARKUP>
4-<I>O</I>-methyl 1-<I>O</I>-(phosphanylmethyl) 2-dimethoxyphosphinothioylsulfanylbutanedioate

> <PUBCHEM_IUPAC_NAME>
4-O-methyl 1-O-(phosphanylmethyl) 2-dimethoxyphosphinothioylsulfanylbutanedioate

> <PUBCHEM_IUPAC_SYSTEMATIC_NAME>
O4-methyl O1-(phosphanylmethyl) 2-dimethoxyphosphinothioylsulfanylbutanedioate

> <PUBCHEM_IUPAC_TRADITIONAL_NAME>
2-(dimethoxythiophosphorylthio)succinic acid O4-methyl ester O1-(phosphinomethyl) ester

> <PUBCHEM_IUPAC_INCHI>
InChI=1S/C8H16O6P2S2/c1-11-7(9)4-6(8(10)14-5-15)18-16(17,12-2)13-3/h6H,4-5,15H2,1-3H3

> <PUBCHEM_IUPAC_INCHIKEY>
ODPSMWGQZRDIQI-UHFFFAOYSA-N

> <PUBCHEM_XLOGP3>
1.4

> <PUBCHEM_EXACT_MASS>
333.98635457

> <PUBCHEM_MOLECULAR_FORMULA>
C8H16O6P2S2

> <PUBCHEM_MOLECULAR_WEIGHT>
334.3

> <PUBCHEM_OPENEYE_CAN_SMILES>
COC(=O)CC(C(=O)OCP)SP(=S)(OC)OC

> <PUBCHEM_OPENEYE_ISO_SMILES>
COC(=O)CC(C(=O)OCP)SP(=S)(OC)OC

> <PUBCHEM_CACTVS_TPSA>
128

> <PUBCHEM_MONOISOTOPIC_WEIGHT>
333.98635457

> <PUBCHEM_TOTAL_CHARGE>
0

> <PUBCHEM_HEAVY_ATOM_COUNT>
18

> <PUBCHEM_ATOM_DEF_STEREO_COUNT>
0

> <PUBCHEM_ATOM_UDEF_STEREO_COUNT>
1

> <PUBCHEM_BOND_DEF_STEREO_COUNT>
0

> <PUBCHEM_BOND_UDEF_STEREO_COUNT>
0

> <PUBCHEM_ISOTOPIC_ATOM_COUNT>
0

> <PUBCHEM_COMPONENT_COUNT>
1

> <PUBCHEM_CACTVS_TAUTO_COUNT>
-1

> <PUBCHEM_COORDINATE_TYPE>
1
5
255

> <PUBCHEM_BONDANNOTATIONS>
11  12  3

$$$$
