 
  -OEChem-10192103302D

 33 32  0     1  0  0  0  0  0999 V2000
    7.7757    1.3935    0.0000 O   0  0  0  0  0  0  0  0  0  0  0  0
    2.8660   -0.3935    0.0000 O   0  0  0  0  0  0  0  0  0  0  0  0
    6.7498   -1.4255    0.0000 O   0  0  0  0  0  0  0  0  0  0  0  0
    4.9401   -2.3332    0.0000 O   0  0  0  0  0  0  0  0  0  0  0  0
    6.1481    1.9859    0.0000 O   0  0  0  0  0  0  0  0  0  0  0  0
    3.7320    1.1065    0.0000 O   0  0  0  0  0  0  0  0  0  0  0  0
    5.4641    0.1065    0.0000 C   0  0  0  0  0  0  0  0  0  0  0  0
    6.4489    0.2802    0.0000 C   0  0  3  0  0  0  0  0  0  0  0  0
    4.5981   -0.3935    0.0000 C   0  0  3  0  0  0  0  0  0  0  0  0
    7.0917   -0.4859    0.0000 C   0  0  0  0  0  0  0  0  0  0  0  0
    4.5981   -1.3935    0.0000 C   0  0  0  0  0  0  0  0  0  0  0  0
    6.7909    1.2199    0.0000 C   0  0  0  0  0  0  0  0  0  0  0  0
    3.7320    0.1065    0.0000 C   0  0  0  0  0  0  0  0  0  0  0  0
    8.0765   -0.3122    0.0000 C   0  0  0  0  0  0  0  0  0  0  0  0
    3.7320   -1.8935    0.0000 C   0  0  0  0  0  0  0  0  0  0  0  0
    8.1178    2.3332    0.0000 C   0  0  0  0  0  0  0  0  0  0  0  0
    2.0000    0.1065    0.0000 C   0  0  0  0  0  0  0  0  0  0  0  0
    5.6071    0.7098    0.0000 H   0  0  0  0  0  0  0  0  0  0  0  0
    5.6762   -0.4761    0.0000 H   0  0  0  0  0  0  0  0  0  0  0  0
    6.2369   -0.3025    0.0000 H   0  0  0  0  0  0  0  0  0  0  0  0
    4.5981    0.2265    0.0000 H   0  0  0  0  0  0  0  0  0  0  0  0
    8.1842   -0.9228    0.0000 H   0  0  0  0  0  0  0  0  0  0  0  0
    8.6871   -0.2046    0.0000 H   0  0  0  0  0  0  0  0  0  0  0  0
    7.9688    0.2983    0.0000 H   0  0  0  0  0  0  0  0  0  0  0  0
    3.4220   -1.3566    0.0000 H   0  0  0  0  0  0  0  0  0  0  0  0
    3.1951   -2.2035    0.0000 H   0  0  0  0  0  0  0  0  0  0  0  0
    4.0420   -2.4304    0.0000 H   0  0  0  0  0  0  0  0  0  0  0  0
    8.7004    2.1211    0.0000 H   0  0  0  0  0  0  0  0  0  0  0  0
    8.3298    2.9158    0.0000 H   0  0  0  0  0  0  0  0  0  0  0  0
    7.5352    2.5452    0.0000 H   0  0  0  0  0  0  0  0  0  0  0  0
    2.3100    0.6434    0.0000 H   0  0  0  0  0  0  0  0  0  0  0  0
    1.4631    0.4165    0.0000 H   0  0  0  0  0  0  0  0  0  0  0  0
    1.6900   -0.4304    0.0000 H   0  0  0  0  0  0  0  0  0  0  0  0
  1 12  1  0  0  0  0
  1 16  1  0  0  0  0
  2 13  1  0  0  0  0
  2 17  1  0  0  0  0
  3 10  2  0  0  0  0
  4 11  2  0  0  0  0
  5 12  2  0  0  0  0
  6 13  2  0  0  0  0
  7  8  1  0  0  0  0
  7  9  1  0  0  0  0
  7 18  1  0  0  0  0
  7 19  1  0  0  0  0
  8 10  1  0  0  0  0
  8 12  1  0  0  0  0
  8 20  1  0  0  0  0
  9 11  1  0  0  0  0
  9 13  1  0  0  0  0
  9 21  1  0  0  0  0
 10 14  1  0  0  0  0
 11 15  1  0  0  0  0
 14 22  1  0  0  0  0
 14 23  1  0  0  0  0
 14 24  1  0  0  0  0
 15 25  1  0  0  0  0
 15 26  1  0  0  0  0
 15 27  1  0  0  0  0
 16 28  1  0  0  0  0
 16 29  1  0  0  0  0
 16 30  1  0  0  0  0
 17 31  1  0  0  0  0
 17 32  1  0  0  0  0
 17 33  1  0  0  0  0
M  END
> <PUBCHEM_COMPOUND_CID>
21783590

> <PUBCHEM_COMPOUND_CANONICALIZED>
1

> <PUBCHEM_CACTVS_COMPLEXITY>
301

> <PUBCHEM_CACTVS_HBOND_ACCEPTOR>
6

> <PUBCHEM_CACTVS_HBOND_DONOR>
0

> <PUBCHEM_CACTVS_ROTATABLE_BOND>
8

> <PUBCHEM_CACTVS_SUBSKEYS>
AAADceBwOAAAAAAAAAAAAAAAAAAAAAAAAAAAAAAAAAAAAAAAAAAAGgAAAAAADQSAgAICCAAABAAIAICQCAAAAAAAAAAAAAEAAAAAABYIAAAAAAAEIAAAAAGI7gguAAAAAAAAAAAAAAAAAAAAAAAAAAAAAA==

> <PUBCHEM_IUPAC_OPENEYE_NAME>
dimethyl 2,4-diacetylpentanedioate

> <PUBCHEM_IUPAC_CAS_NAME>
2,4-diacetylpentanedioic acid dimethyl ester

> <PUBCHEM_IUPAC_NAME_MARKUP>
dimethyl 2,4-diacetylpentanedioate

> <PUBCHEM_IUPAC_NAME>
dimethyl 2,4-diacetylpentanedioate

> <PUBCHEM_IUPAC_SYSTEMATIC_NAME>
dimethyl 2,4-diethanoylpentanedioate

> <PUBCHEM_IUPAC_TRADITIONAL_NAME>
2,4-diacetylglutaric acid dimethyl ester

> <PUBCHEM_IUPAC_INCHI>
InChI=1S/C11H16O6/c1-6(12)8(10(14)16-3)5-9(7(2)13)11(15)17-4/h8-9H,5H2,1-4H3

> <PUBCHEM_IUPAC_INCHIKEY>
AAMQVMLFDJIQMD-UHFFFAOYSA-N

> <PUBCHEM_XLOGP3_AA>
0.1

> <PUBCHEM_EXACT_MASS>
244.09468823

> <PUBCHEM_MOLECULAR_FORMULA>
C11H16O6

> <PUBCHEM_MOLECULAR_WEIGHT>
244.24

> <PUBCHEM_OPENEYE_CAN_SMILES>
CC(=O)C(CC(C(=O)C)C(=O)OC)C(=O)OC

> <PUBCHEM_OPENEYE_ISO_SMILES>
CC(=O)C(CC(C(=O)C)C(=O)OC)C(=O)OC

> <PUBCHEM_CACTVS_TPSA>
86.7

> <PUBCHEM_MONOISOTOPIC_WEIGHT>
244.09468823

> <PUBCHEM_TOTAL_CHARGE>
0

> <PUBCHEM_HEAVY_ATOM_COUNT>
17

> <PUBCHEM_ATOM_DEF_STEREO_COUNT>
0

> <PUBCHEM_ATOM_UDEF_STEREO_COUNT>
2

> <PUBCHEM_BOND_DEF_STEREO_COUNT>
0

> <PUBCHEM_BOND_UDEF_STEREO_COUNT>
0

> <PUBCHEM_ISOTOPIC_ATOM_COUNT>
0

> <PUBCHEM_COMPONENT_COUNT>
1

> <PUBCHEM_CACTVS_TAUTO_COUNT>
-1

> <PUBCHEM_COORDINATE_TYPE>
1
5
255

> <PUBCHEM_BONDANNOTATIONS>
8  7  3
9  7  3

$$$$
