 
  -OEChem-10192104262D

 30 29  0     1  0  0  0  0  0999 V2000
    6.8671    0.0600    0.0000 S   0  0  0  0  0  0  0  0  0  0  0  0
    6.0010   -0.4400    0.0000 O   0  0  0  0  0  0  0  0  0  0  0  0
    2.5369   -0.4400    0.0000 O   0  0  0  0  0  0  0  0  0  0  0  0
    3.4030   -1.9400    0.0000 O   0  0  0  0  0  0  0  0  0  0  0  0
    7.3671   -0.8060    0.0000 O   0  0  0  0  0  0  0  0  0  0  0  0
    6.3671    0.9260    0.0000 O   0  0  0  0  0  0  0  0  0  0  0  0
    3.4030    1.0600    0.0000 O   0  0  0  0  0  0  0  0  0  0  0  0
    5.1350   -1.9400    0.0000 O   0  0  0  0  0  0  0  0  0  0  0  0
    5.1350    0.0600    0.0000 C   0  0  1  0  0  0  0  0  0  0  0  0
    5.1350    1.0600    0.0000 C   0  0  0  0  0  0  0  0  0  0  0  0
    4.2690   -0.4400    0.0000 C   0  0  0  0  0  0  0  0  0  0  0  0
    6.0010    1.5600    0.0000 C   0  0  0  0  0  0  0  0  0  0  0  0
    6.0010    2.5600    0.0000 C   0  0  0  0  0  0  0  0  0  0  0  0
    3.4030    0.0600    0.0000 C   0  0  0  0  0  0  0  0  0  0  0  0
    4.2690   -1.4400    0.0000 C   0  0  0  0  0  0  0  0  0  0  0  0
    7.7331    0.5600    0.0000 C   0  0  0  0  0  0  0  0  0  0  0  0
    5.1350   -0.5600    0.0000 H   0  0  0  0  0  0  0  0  0  0  0  0
    4.9230    1.6426    0.0000 H   0  0  0  0  0  0  0  0  0  0  0  0
    4.5244    0.9523    0.0000 H   0  0  0  0  0  0  0  0  0  0  0  0
    4.2690    0.1800    0.0000 H   0  0  0  0  0  0  0  0  0  0  0  0
    6.2131    0.9774    0.0000 H   0  0  0  0  0  0  0  0  0  0  0  0
    6.6116    1.6677    0.0000 H   0  0  0  0  0  0  0  0  0  0  0  0
    6.6210    2.5600    0.0000 H   0  0  0  0  0  0  0  0  0  0  0  0
    6.0010    3.1800    0.0000 H   0  0  0  0  0  0  0  0  0  0  0  0
    5.3810    2.5600    0.0000 H   0  0  0  0  0  0  0  0  0  0  0  0
    8.0431    0.0231    0.0000 H   0  0  0  0  0  0  0  0  0  0  0  0
    8.2700    0.8700    0.0000 H   0  0  0  0  0  0  0  0  0  0  0  0
    7.4231    1.0969    0.0000 H   0  0  0  0  0  0  0  0  0  0  0  0
    2.0000   -0.1300    0.0000 H   0  0  0  0  0  0  0  0  0  0  0  0
    3.4030   -2.5600    0.0000 H   0  0  0  0  0  0  0  0  0  0  0  0
  1  2  1  0  0  0  0
  1  5  2  0  0  0  0
  1  6  2  0  0  0  0
  1 16  1  0  0  0  0
  9  2  1  6  0  0  0
  3 14  1  0  0  0  0
  3 29  1  0  0  0  0
  4 15  1  0  0  0  0
  4 30  1  0  0  0  0
  7 14  2  0  0  0  0
  8 15  2  0  0  0  0
  9 10  1  0  0  0  0
  9 11  1  0  0  0  0
  9 17  1  0  0  0  0
 10 12  1  0  0  0  0
 10 18  1  0  0  0  0
 10 19  1  0  0  0  0
 11 14  1  0  0  0  0
 11 15  1  0  0  0  0
 11 20  1  0  0  0  0
 12 13  1  0  0  0  0
 12 21  1  0  0  0  0
 12 22  1  0  0  0  0
 13 23  1  0  0  0  0
 13 24  1  0  0  0  0
 13 25  1  0  0  0  0
 16 26  1  0  0  0  0
 16 27  1  0  0  0  0
 16 28  1  0  0  0  0
M  END
> <PUBCHEM_COMPOUND_CID>
87737583

> <PUBCHEM_COMPOUND_CANONICALIZED>
1

> <PUBCHEM_CACTVS_COMPLEXITY>
339

> <PUBCHEM_CACTVS_HBOND_ACCEPTOR>
7

> <PUBCHEM_CACTVS_HBOND_DONOR>
2

> <PUBCHEM_CACTVS_ROTATABLE_BOND>
7

> <PUBCHEM_CACTVS_SUBSKEYS>
AAADccBwOABAAAAAAAAAAAAAAAAAAAAAAAAAAAAAAAAAAAAAAAAAGgQACAAADRSggAKCCAAAAgIIAACQCHAAAAAAAAAAAAEAAAAAABYIAAAAQAAFIAAAAAGISAAMAAAAAAAAAAAAAAAAAAAAAAAAAAAAAA==

> <PUBCHEM_IUPAC_OPENEYE_NAME>
2-[(1S)-1-methylsulfonyloxybutyl]propanedioic acid

> <PUBCHEM_IUPAC_CAS_NAME>
2-[(1S)-1-methylsulfonyloxybutyl]propanedioic acid

> <PUBCHEM_IUPAC_NAME_MARKUP>
2-[(1<I>S</I>)-1-methylsulfonyloxybutyl]propanedioic acid

> <PUBCHEM_IUPAC_NAME>
2-[(1S)-1-methylsulfonyloxybutyl]propanedioic acid

> <PUBCHEM_IUPAC_SYSTEMATIC_NAME>
2-[(1S)-1-methylsulfonyloxybutyl]propanedioic acid

> <PUBCHEM_IUPAC_TRADITIONAL_NAME>
2-[(1S)-1-methylsulfonyloxybutyl]malonic acid

> <PUBCHEM_IUPAC_INCHI>
InChI=1S/C8H14O7S/c1-3-4-5(15-16(2,13)14)6(7(9)10)8(11)12/h5-6H,3-4H2,1-2H3,(H,9,10)(H,11,12)/t5-/m0/s1

> <PUBCHEM_IUPAC_INCHIKEY>
LFLXGLOPRPTNBK-YFKPBYRVSA-N

> <PUBCHEM_XLOGP3_AA>
0.3

> <PUBCHEM_EXACT_MASS>
254.04602395

> <PUBCHEM_MOLECULAR_FORMULA>
C8H14O7S

> <PUBCHEM_MOLECULAR_WEIGHT>
254.26

> <PUBCHEM_OPENEYE_CAN_SMILES>
CCCC(C(C(=O)O)C(=O)O)OS(=O)(=O)C

> <PUBCHEM_OPENEYE_ISO_SMILES>
CCC[C@@H](C(C(=O)O)C(=O)O)OS(=O)(=O)C

> <PUBCHEM_CACTVS_TPSA>
126

> <PUBCHEM_MONOISOTOPIC_WEIGHT>
254.04602395

> <PUBCHEM_TOTAL_CHARGE>
0

> <PUBCHEM_HEAVY_ATOM_COUNT>
16

> <PUBCHEM_ATOM_DEF_STEREO_COUNT>
1

> <PUBCHEM_ATOM_UDEF_STEREO_COUNT>
0

> <PUBCHEM_BOND_DEF_STEREO_COUNT>
0

> <PUBCHEM_BOND_UDEF_STEREO_COUNT>
0

> <PUBCHEM_ISOTOPIC_ATOM_COUNT>
0

> <PUBCHEM_COMPONENT_COUNT>
1

> <PUBCHEM_CACTVS_TAUTO_COUNT>
-1

> <PUBCHEM_COORDINATE_TYPE>
1
5
255

> <PUBCHEM_BONDANNOTATIONS>
9  2  6

$$$$
