 
  -OEChem-10192104002D

 60 62  0     1  0  0  0  0  0999 V2000
    8.4497   -0.3450    0.0000 O   0  0  0  0  0  0  0  0  0  0  0  0
    4.8811    0.6495    0.0000 O   0  0  0  0  0  0  0  0  0  0  0  0
    5.8517   -0.8450    0.0000 O   0  0  0  0  0  0  0  0  0  0  0  0
    2.6598   -0.6777    0.0000 O   0  0  0  0  0  0  0  0  0  0  0  0
    3.8642   -1.7299    0.0000 O   0  0  0  0  0  0  0  0  0  0  0  0
    6.7177   -2.3450    0.0000 O   0  0  0  0  0  0  0  0  0  0  0  0
    8.4497   -3.3450    0.0000 O   0  0  0  0  0  0  0  0  0  0  0  0
   10.1818   -0.3450    0.0000 O   0  0  0  0  0  0  0  0  0  0  0  0
   10.1818   -2.3450    0.0000 O   0  0  0  0  0  0  0  0  0  0  0  0
    2.5369    1.4914    0.0000 O   0  0  0  0  0  0  0  0  0  0  0  0
    8.4497    2.6550    0.0000 O   0  0  0  0  0  0  0  0  0  0  0  0
   11.9138   -0.3450    0.0000 O   0  0  0  0  0  0  0  0  0  0  0  0
    3.4030   -0.0086    0.0000 C   0  0  3  0  0  0  0  0  0  0  0  0
    7.5837   -0.8450    0.0000 C   0  0  3  0  0  0  0  0  0  0  0  0
    4.0721   -0.7517    0.0000 C   0  0  3  0  0  0  0  0  0  0  0  0
    7.5837   -1.8450    0.0000 C   0  0  3  0  0  0  0  0  0  0  0  0
    4.9856   -0.3450    0.0000 C   0  0  3  0  0  0  0  0  0  0  0  0
    8.4497   -2.3450    0.0000 C   0  0  3  0  0  0  0  0  0  0  0  0
    9.3158   -1.8450    0.0000 C   0  0  3  0  0  0  0  0  0  0  0  0
    3.9030    0.8574    0.0000 C   0  0  0  0  0  0  0  0  0  0  0  0
    6.7177   -0.3450    0.0000 C   0  0  0  0  0  0  0  0  0  0  0  0
    9.3158   -0.8450    0.0000 C   0  0  3  0  0  0  0  0  0  0  0  0
    2.5369    0.4914    0.0000 C   0  0  0  0  0  0  0  0  0  0  0  0
   10.1818    0.6550    0.0000 C   0  0  0  0  0  0  0  0  0  0  0  0
   11.0478    1.1550    0.0000 C   0  0  0  0  0  0  0  0  0  0  0  0
    9.3158    1.1550    0.0000 C   0  0  0  0  0  0  0  0  0  0  0  0
   11.0478    2.1550    0.0000 C   0  0  0  0  0  0  0  0  0  0  0  0
    9.3158    2.1550    0.0000 C   0  0  0  0  0  0  0  0  0  0  0  0
   11.9138    0.6550    0.0000 C   0  0  0  0  0  0  0  0  0  0  0  0
   10.1818    2.6550    0.0000 C   0  0  0  0  0  0  0  0  0  0  0  0
   12.7799    1.1550    0.0000 C   0  0  0  0  0  0  0  0  0  0  0  0
    8.4497    3.6550    0.0000 C   0  0  0  0  0  0  0  0  0  0  0  0
    7.5837   -0.2250    0.0000 H   0  0  0  0  0  0  0  0  0  0  0  0
    3.4732   -0.9122    0.0000 H   0  0  0  0  0  0  0  0  0  0  0  0
    7.0468   -1.5350    0.0000 H   0  0  0  0  0  0  0  0  0  0  0  0
    4.9532   -0.9642    0.0000 H   0  0  0  0  0  0  0  0  0  0  0  0
    7.9128   -2.6550    0.0000 H   0  0  0  0  0  0  0  0  0  0  0  0
    9.3158   -2.4650    0.0000 H   0  0  0  0  0  0  0  0  0  0  0  0
    4.0946    1.4471    0.0000 H   0  0  0  0  0  0  0  0  0  0  0  0
    3.3366    1.1096    0.0000 H   0  0  0  0  0  0  0  0  0  0  0  0
    7.1162    0.1299    0.0000 H   0  0  0  0  0  0  0  0  0  0  0  0
    6.3192    0.1299    0.0000 H   0  0  0  0  0  0  0  0  0  0  0  0
    9.8527   -1.1550    0.0000 H   0  0  0  0  0  0  0  0  0  0  0  0
    1.9264    0.5991    0.0000 H   0  0  0  0  0  0  0  0  0  0  0  0
    2.3249   -0.0912    0.0000 H   0  0  0  0  0  0  0  0  0  0  0  0
    2.0702   -0.4861    0.0000 H   0  0  0  0  0  0  0  0  0  0  0  0
    4.3249   -2.1448    0.0000 H   0  0  0  0  0  0  0  0  0  0  0  0
    6.7177   -2.9650    0.0000 H   0  0  0  0  0  0  0  0  0  0  0  0
    8.9867   -3.6550    0.0000 H   0  0  0  0  0  0  0  0  0  0  0  0
   10.7187   -2.0350    0.0000 H   0  0  0  0  0  0  0  0  0  0  0  0
    2.0000    1.8014    0.0000 H   0  0  0  0  0  0  0  0  0  0  0  0
    8.7788    0.8450    0.0000 H   0  0  0  0  0  0  0  0  0  0  0  0
   11.5848    2.4650    0.0000 H   0  0  0  0  0  0  0  0  0  0  0  0
   10.1818    3.2750    0.0000 H   0  0  0  0  0  0  0  0  0  0  0  0
   13.0899    0.6181    0.0000 H   0  0  0  0  0  0  0  0  0  0  0  0
   13.3168    1.4650    0.0000 H   0  0  0  0  0  0  0  0  0  0  0  0
   12.4699    1.6919    0.0000 H   0  0  0  0  0  0  0  0  0  0  0  0
    9.0697    3.6550    0.0000 H   0  0  0  0  0  0  0  0  0  0  0  0
    8.4497    4.2750    0.0000 H   0  0  0  0  0  0  0  0  0  0  0  0
    7.8297    3.6550    0.0000 H   0  0  0  0  0  0  0  0  0  0  0  0
  1 14  1  0  0  0  0
  1 22  1  0  0  0  0
  2 17  1  0  0  0  0
  2 20  1  0  0  0  0
  3 17  1  0  0  0  0
  3 21  1  0  0  0  0
  4 13  1  0  0  0  0
  4 46  1  0  0  0  0
  5 15  1  0  0  0  0
  5 47  1  0  0  0  0
  6 16  1  0  0  0  0
  6 48  1  0  0  0  0
  7 18  1  0  0  0  0
  7 49  1  0  0  0  0
  8 22  1  0  0  0  0
  8 24  1  0  0  0  0
  9 19  1  0  0  0  0
  9 50  1  0  0  0  0
 10 23  1  0  0  0  0
 10 51  1  0  0  0  0
 11 28  1  0  0  0  0
 11 32  1  0  0  0  0
 12 29  2  0  0  0  0
 13 15  1  0  0  0  0
 13 20  1  0  0  0  0
 13 23  1  0  0  0  0
 14 16  1  0  0  0  0
 14 21  1  0  0  0  0
 14 33  1  0  0  0  0
 15 17  1  0  0  0  0
 15 34  1  0  0  0  0
 16 18  1  0  0  0  0
 16 35  1  0  0  0  0
 17 36  1  0  0  0  0
 18 19  1  0  0  0  0
 18 37  1  0  0  0  0
 19 22  1  0  0  0  0
 19 38  1  0  0  0  0
 20 39  1  0  0  0  0
 20 40  1  0  0  0  0
 21 41  1  0  0  0  0
 21 42  1  0  0  0  0
 22 43  1  0  0  0  0
 23 44  1  0  0  0  0
 23 45  1  0  0  0  0
 24 25  2  0  0  0  0
 24 26  1  0  0  0  0
 25 27  1  0  0  0  0
 25 29  1  0  0  0  0
 26 28  2  0  0  0  0
 26 52  1  0  0  0  0
 27 30  2  0  0  0  0
 27 53  1  0  0  0  0
 28 30  1  0  0  0  0
 29 31  1  0  0  0  0
 30 54  1  0  0  0  0
 31 55  1  0  0  0  0
 31 56  1  0  0  0  0
 31 57  1  0  0  0  0
 32 58  1  0  0  0  0
 32 59  1  0  0  0  0
 32 60  1  0  0  0  0
M  END
> <PUBCHEM_COMPOUND_CID>
127509

> <PUBCHEM_COMPOUND_CANONICALIZED>
1

> <PUBCHEM_CACTVS_COMPLEXITY>
634

> <PUBCHEM_CACTVS_HBOND_ACCEPTOR>
12

> <PUBCHEM_CACTVS_HBOND_DONOR>
6

> <PUBCHEM_CACTVS_ROTATABLE_BOND>
8

> <PUBCHEM_CACTVS_SUBSKEYS>
AAADceB4PAAAAAAAAAAAAAAAAAAAASAAAAA0QAAAAAAAAAABAAAAGgAACAAADFSwmAMyDoAABgCIAqBSAAACCAAkIAAIiAEGCMgdNzaENRqieWCl4BUPqYfI7KzOIAAACAAIAABAAAAQABAAAAAAAAAAAA==

> <PUBCHEM_IUPAC_OPENEYE_NAME>
1-[2-[6-[[3,4-dihydroxy-4-(hydroxymethyl)tetrahydrofuran-2-yl]oxymethyl]-3,4,5-trihydroxy-tetrahydropyran-2-yl]oxy-4-methoxy-phenyl]ethanone

> <PUBCHEM_IUPAC_CAS_NAME>
1-[2-[[6-[[3,4-dihydroxy-4-(hydroxymethyl)-2-oxolanyl]oxymethyl]-3,4,5-trihydroxy-2-oxanyl]oxy]-4-methoxyphenyl]ethanone

> <PUBCHEM_IUPAC_NAME_MARKUP>
1-[2-[6-[[3,4-dihydroxy-4-(hydroxymethyl)oxolan-2-yl]oxymethyl]-3,4,5-trihydroxyoxan-2-yl]oxy-4-methoxyphenyl]ethanone

> <PUBCHEM_IUPAC_NAME>
1-[2-[6-[[3,4-dihydroxy-4-(hydroxymethyl)oxolan-2-yl]oxymethyl]-3,4,5-trihydroxyoxan-2-yl]oxy-4-methoxyphenyl]ethanone

> <PUBCHEM_IUPAC_SYSTEMATIC_NAME>
1-[2-[6-[[4-(hydroxymethyl)-3,4-bis(oxidanyl)oxolan-2-yl]oxymethyl]-3,4,5-tris(oxidanyl)oxan-2-yl]oxy-4-methoxy-phenyl]ethanone

> <PUBCHEM_IUPAC_TRADITIONAL_NAME>
1-[2-[6-[(3,4-dihydroxy-4-methylol-tetrahydrofuran-2-yl)oxymethyl]-3,4,5-trihydroxy-tetrahydropyran-2-yl]oxy-4-methoxy-phenyl]ethanone

> <PUBCHEM_IUPAC_INCHI>
InChI=1S/C20H28O12/c1-9(22)11-4-3-10(28-2)5-12(11)31-18-16(25)15(24)14(23)13(32-18)6-29-19-17(26)20(27,7-21)8-30-19/h3-5,13-19,21,23-27H,6-8H2,1-2H3

> <PUBCHEM_IUPAC_INCHIKEY>
IRLNKOAURQPXIQ-UHFFFAOYSA-N

> <PUBCHEM_XLOGP3_AA>
-2.4

> <PUBCHEM_EXACT_MASS>
460.15807632

> <PUBCHEM_MOLECULAR_FORMULA>
C20H28O12

> <PUBCHEM_MOLECULAR_WEIGHT>
460.4

> <PUBCHEM_OPENEYE_CAN_SMILES>
CC(=O)C1=C(C=C(C=C1)OC)OC2C(C(C(C(O2)COC3C(C(CO3)(CO)O)O)O)O)O

> <PUBCHEM_OPENEYE_ISO_SMILES>
CC(=O)C1=C(C=C(C=C1)OC)OC2C(C(C(C(O2)COC3C(C(CO3)(CO)O)O)O)O)O

> <PUBCHEM_CACTVS_TPSA>
185

> <PUBCHEM_MONOISOTOPIC_WEIGHT>
460.15807632

> <PUBCHEM_TOTAL_CHARGE>
0

> <PUBCHEM_HEAVY_ATOM_COUNT>
32

> <PUBCHEM_ATOM_DEF_STEREO_COUNT>
0

> <PUBCHEM_ATOM_UDEF_STEREO_COUNT>
8

> <PUBCHEM_BOND_DEF_STEREO_COUNT>
0

> <PUBCHEM_BOND_UDEF_STEREO_COUNT>
0

> <PUBCHEM_ISOTOPIC_ATOM_COUNT>
0

> <PUBCHEM_COMPONENT_COUNT>
1

> <PUBCHEM_CACTVS_TAUTO_COUNT>
-1

> <PUBCHEM_COORDINATE_TYPE>
1
5
255

> <PUBCHEM_BONDANNOTATIONS>
14  21  3
24  25  8
24  26  8
25  27  8
26  28  8
27  30  8
28  30  8
17  3  3
13  4  3
15  5  3
16  6  3
18  7  3
22  8  3
19  9  3

$$$$
