 
  -OEChem-10192103302D

 88 93  0     1  0  0  0  0  0999 V2000
    9.7082   -0.2859    0.0000 O   0  0  0  0  0  0  0  0  0  0  0  0
    9.0532    2.3958    0.0000 O   0  0  0  0  0  0  0  0  0  0  0  0
    5.9670    0.1505    0.0000 O   0  0  0  0  0  0  0  0  0  0  0  0
    6.8671   -1.3738    0.0000 O   0  0  0  0  0  0  0  0  0  0  0  0
    8.5136   -1.8899    0.0000 O   0  0  0  0  0  0  0  0  0  0  0  0
   10.3537    3.5398    0.0000 O   0  0  0  0  0  0  0  0  0  0  0  0
    5.1350   -1.3738    0.0000 O   0  0  0  0  0  0  0  0  0  0  0  0
   10.3742    0.8941    0.0000 O   0  0  0  0  0  0  0  0  0  0  0  0
   12.3352    1.2873    0.0000 O   0  0  0  0  0  0  0  0  0  0  0  0
    6.8671   -3.3738    0.0000 O   0  0  0  0  0  0  0  0  0  0  0  0
   12.9752    3.1822    0.0000 O   0  0  0  0  0  0  0  0  0  0  0  0
    5.1350   -4.3738    0.0000 O   0  0  0  0  0  0  0  0  0  0  0  0
    3.4030   -3.3738    0.0000 O   0  0  0  0  0  0  0  0  0  0  0  0
    2.5369   -1.8738    0.0000 O   0  0  0  0  0  0  0  0  0  0  0  0
   13.6357    2.4313    0.0000 O   0  0  0  0  0  0  0  0  0  0  0  0
   15.6377   -2.4668    0.0000 O   0  0  0  0  0  0  0  0  0  0  0  0
   17.5986   -2.0737    0.0000 O   0  0  0  0  0  0  0  0  0  0  0  0
    8.7145   -0.1695    0.0000 C   0  0  1  0  0  0  0  0  0  0  0  0
    9.3116    0.6326    0.0000 C   0  0  2  0  0  0  0  0  0  0  0  0
    7.7671    0.1505    0.0000 C   0  0  2  0  0  0  0  0  0  0  0  0
    8.7333    1.4484    0.0000 C   0  0  2  0  0  0  0  0  0  0  0  0
    7.7787    1.1504    0.0000 C   0  0  2  0  0  0  0  0  0  0  0  0
    8.1174   -0.9717    0.0000 C   0  0  0  0  0  0  0  0  0  0  0  0
    6.8671   -0.3738    0.0000 C   0  0  1  0  0  0  0  0  0  0  0  0
    6.8910    1.6954    0.0000 C   0  0  0  0  0  0  0  0  0  0  0  0
    5.9790    1.1920    0.0000 C   0  0  0  0  0  0  0  0  0  0  0  0
   10.0337    2.5924    0.0000 C   0  0  2  0  0  0  0  0  0  0  0  0
    6.0010   -1.8738    0.0000 C   0  0  2  0  0  0  0  0  0  0  0  0
   10.6942    1.8416    0.0000 C   0  0  1  0  0  0  0  0  0  0  0  0
   11.6747    2.0382    0.0000 C   0  0  1  0  0  0  0  0  0  0  0  0
    6.0010   -2.8738    0.0000 C   0  0  1  0  0  0  0  0  0  0  0  0
   11.3342    3.7364    0.0000 C   0  0  2  0  0  0  0  0  0  0  0  0
   11.9947    2.9856    0.0000 C   0  0  2  0  0  0  0  0  0  0  0  0
    5.1350   -3.3738    0.0000 C   0  0  2  0  0  0  0  0  0  0  0  0
    4.2690   -1.8738    0.0000 C   0  0  1  0  0  0  0  0  0  0  0  0
    4.2690   -2.8738    0.0000 C   0  0  1  0  0  0  0  0  0  0  0  0
   11.6542    4.6838    0.0000 C   0  0  0  0  0  0  0  0  0  0  0  0
    3.4030   -1.3738    0.0000 C   0  0  0  0  0  0  0  0  0  0  0  0
   13.3157    1.4839    0.0000 C   0  0  0  0  0  0  0  0  0  0  0  0
   13.9762    0.7331    0.0000 C   0  0  0  0  0  0  0  0  0  0  0  0
   14.9567    0.9297    0.0000 C   0  0  0  0  0  0  0  0  0  0  0  0
   15.6172    0.1788    0.0000 C   0  0  0  0  0  0  0  0  0  0  0  0
   15.2972   -0.7686    0.0000 C   0  0  0  0  0  0  0  0  0  0  0  0
   16.5977    0.3754    0.0000 C   0  0  0  0  0  0  0  0  0  0  0  0
   15.9577   -1.5194    0.0000 C   0  0  0  0  0  0  0  0  0  0  0  0
   17.2581   -0.3754    0.0000 C   0  0  0  0  0  0  0  0  0  0  0  0
   16.9382   -1.3228    0.0000 C   0  0  0  0  0  0  0  0  0  0  0  0
   16.2982   -3.2177    0.0000 C   0  0  0  0  0  0  0  0  0  0  0  0
   10.0526    1.0492    0.0000 H   0  0  0  0  0  0  0  0  0  0  0  0
    7.8527   -0.6952    0.0000 H   0  0  0  0  0  0  0  0  0  0  0  0
    9.3467    1.5383    0.0000 H   0  0  0  0  0  0  0  0  0  0  0  0
    7.8838    1.9939    0.0000 H   0  0  0  0  0  0  0  0  0  0  0  0
    7.6919   -0.5208    0.0000 H   0  0  0  0  0  0  0  0  0  0  0  0
    7.5995   -1.3124    0.0000 H   0  0  0  0  0  0  0  0  0  0  0  0
    7.4046   -0.6828    0.0000 H   0  0  0  0  0  0  0  0  0  0  0  0
    6.9053    2.3152    0.0000 H   0  0  0  0  0  0  0  0  0  0  0  0
    5.4470    1.5103    0.0000 H   0  0  0  0  0  0  0  0  0  0  0  0
    9.8353    2.0050    0.0000 H   0  0  0  0  0  0  0  0  0  0  0  0
    9.1294   -1.9618    0.0000 H   0  0  0  0  0  0  0  0  0  0  0  0
    6.0010   -1.2538    0.0000 H   0  0  0  0  0  0  0  0  0  0  0  0
   11.1037    1.3760    0.0000 H   0  0  0  0  0  0  0  0  0  0  0  0
   12.2826    2.1600    0.0000 H   0  0  0  0  0  0  0  0  0  0  0  0
    6.0010   -3.4938    0.0000 H   0  0  0  0  0  0  0  0  0  0  0  0
   10.9247    4.2019    0.0000 H   0  0  0  0  0  0  0  0  0  0  0  0
   12.4042    2.5201    0.0000 H   0  0  0  0  0  0  0  0  0  0  0  0
    4.5981   -3.6838    0.0000 H   0  0  0  0  0  0  0  0  0  0  0  0
    4.2690   -1.2538    0.0000 H   0  0  0  0  0  0  0  0  0  0  0  0
    4.2690   -3.4938    0.0000 H   0  0  0  0  0  0  0  0  0  0  0  0
   10.7837    0.4286    0.0000 H   0  0  0  0  0  0  0  0  0  0  0  0
   12.2416    4.4854    0.0000 H   0  0  0  0  0  0  0  0  0  0  0  0
   11.8526    5.2712    0.0000 H   0  0  0  0  0  0  0  0  0  0  0  0
   11.0668    4.8822    0.0000 H   0  0  0  0  0  0  0  0  0  0  0  0
    6.8671   -3.9938    0.0000 H   0  0  0  0  0  0  0  0  0  0  0  0
   13.1736    3.7696    0.0000 H   0  0  0  0  0  0  0  0  0  0  0  0
    3.8015   -0.8989    0.0000 H   0  0  0  0  0  0  0  0  0  0  0  0
    3.0044   -0.8989    0.0000 H   0  0  0  0  0  0  0  0  0  0  0  0
    4.5981   -4.6838    0.0000 H   0  0  0  0  0  0  0  0  0  0  0  0
    3.4030   -3.9938    0.0000 H   0  0  0  0  0  0  0  0  0  0  0  0
    2.0000   -1.5638    0.0000 H   0  0  0  0  0  0  0  0  0  0  0  0
   13.7778    0.1457    0.0000 H   0  0  0  0  0  0  0  0  0  0  0  0
   15.1551    1.5171    0.0000 H   0  0  0  0  0  0  0  0  0  0  0  0
   14.6893   -0.8905    0.0000 H   0  0  0  0  0  0  0  0  0  0  0  0
   16.7960    0.9628    0.0000 H   0  0  0  0  0  0  0  0  0  0  0  0
   17.8660   -0.2535    0.0000 H   0  0  0  0  0  0  0  0  0  0  0  0
   18.2065   -1.9518    0.0000 H   0  0  0  0  0  0  0  0  0  0  0  0
   15.8326   -3.6272    0.0000 H   0  0  0  0  0  0  0  0  0  0  0  0
   16.7077   -3.6832    0.0000 H   0  0  0  0  0  0  0  0  0  0  0  0
   16.7637   -2.8082    0.0000 H   0  0  0  0  0  0  0  0  0  0  0  0
  1 18  1  0  0  0  0
  1 19  1  0  0  0  0
 21  2  1  6  0  0  0
 27  2  1  6  0  0  0
  3 24  1  0  0  0  0
  3 26  1  0  0  0  0
 24  4  1  6  0  0  0
 28  4  1  1  0  0  0
  5 23  1  0  0  0  0
  5 59  1  0  0  0  0
  6 27  1  0  0  0  0
  6 32  1  0  0  0  0
  7 28  1  0  0  0  0
  7 35  1  0  0  0  0
 29  8  1  1  0  0  0
  8 69  1  0  0  0  0
 30  9  1  1  0  0  0
  9 39  1  0  0  0  0
 31 10  1  6  0  0  0
 10 73  1  0  0  0  0
 33 11  1  6  0  0  0
 11 74  1  0  0  0  0
 34 12  1  1  0  0  0
 12 77  1  0  0  0  0
 36 13  1  6  0  0  0
 13 78  1  0  0  0  0
 14 38  1  0  0  0  0
 14 79  1  0  0  0  0
 15 39  2  0  0  0  0
 16 45  1  0  0  0  0
 16 48  1  0  0  0  0
 17 47  1  0  0  0  0
 17 85  1  0  0  0  0
 18 19  1  0  0  0  0
 18 20  1  0  0  0  0
 18 23  1  1  0  0  0
 19 21  1  0  0  0  0
 19 49  1  1  0  0  0
 20 22  1  0  0  0  0
 20 24  1  0  0  0  0
 20 50  1  6  0  0  0
 21 22  1  0  0  0  0
 21 51  1  0  0  0  0
 22 25  1  0  0  0  0
 22 52  1  6  0  0  0
 23 53  1  0  0  0  0
 23 54  1  0  0  0  0
 24 55  1  0  0  0  0
 25 26  2  0  0  0  0
 25 56  1  0  0  0  0
 26 57  1  0  0  0  0
 27 29  1  0  0  0  0
 27 58  1  0  0  0  0
 28 31  1  0  0  0  0
 28 60  1  0  0  0  0
 29 30  1  0  0  0  0
 29 61  1  0  0  0  0
 30 33  1  0  0  0  0
 30 62  1  0  0  0  0
 31 34  1  0  0  0  0
 31 63  1  0  0  0  0
 32 33  1  0  0  0  0
 32 37  1  1  0  0  0
 32 64  1  0  0  0  0
 33 65  1  0  0  0  0
 34 36  1  0  0  0  0
 34 66  1  0  0  0  0
 35 36  1  0  0  0  0
 35 38  1  1  0  0  0
 35 67  1  0  0  0  0
 36 68  1  0  0  0  0
 37 70  1  0  0  0  0
 37 71  1  0  0  0  0
 37 72  1  0  0  0  0
 38 75  1  0  0  0  0
 38 76  1  0  0  0  0
 39 40  1  0  0  0  0
 40 41  2  0  0  0  0
 40 80  1  0  0  0  0
 41 42  1  0  0  0  0
 41 81  1  0  0  0  0
 42 43  2  0  0  0  0
 42 44  1  0  0  0  0
 43 45  1  0  0  0  0
 43 82  1  0  0  0  0
 44 46  2  0  0  0  0
 44 83  1  0  0  0  0
 45 47  2  0  0  0  0
 46 47  1  0  0  0  0
 46 84  1  0  0  0  0
 48 86  1  0  0  0  0
 48 87  1  0  0  0  0
 48 88  1  0  0  0  0
M  END
> <PUBCHEM_COMPOUND_CID>
23928112

> <PUBCHEM_COMPOUND_CANONICALIZED>
1

> <PUBCHEM_CACTVS_COMPLEXITY>
1190

> <PUBCHEM_CACTVS_HBOND_ACCEPTOR>
17

> <PUBCHEM_CACTVS_HBOND_DONOR>
8

> <PUBCHEM_CACTVS_ROTATABLE_BOND>
11

> <PUBCHEM_CACTVS_SUBSKEYS>
AAADcfB4PgAAAAAAAAAAAAAAEgAAAYAAAAA0SJECAAAAAEABAAAAGgAACAAADVSwmAMyDoAABgCIAiDSCAACCAAgIAAIiAAGiMgdNiKGMRqicCMlwBEPuYfA4DwOoAABAAAAQABAAAIAAACAAYQADCAAAA==

> <PUBCHEM_IUPAC_OPENEYE_NAME>
[(2S,3R,4R,5S,6S)-3,5-dihydroxy-2-[[(1S,2S,4S,5S,6R,10S)-2-(hydroxymethyl)-10-[(2S,3R,4S,5S,6R)-3,4,5-trihydroxy-6-(hydroxymethyl)tetrahydropyran-2-yl]oxy-3,9-dioxatricyclo[4.4.0.02,4]dec-7-en-5-yl]oxy]-6-methyl-tetrahydropyran-4-yl] (E)-3-(4-hydroxy-3-methoxy-phenyl)prop-2-enoate

> <PUBCHEM_IUPAC_CAS_NAME>
(E)-3-(4-hydroxy-3-methoxyphenyl)-2-propenoic acid [(2S,3R,4R,5S,6S)-3,5-dihydroxy-2-[[(1S,2S,4S,5S,6R,10S)-2-(hydroxymethyl)-10-[[(2S,3R,4S,5S,6R)-3,4,5-trihydroxy-6-(hydroxymethyl)-2-oxanyl]oxy]-3,9-dioxatricyclo[4.4.0.02,4]dec-7-en-5-yl]oxy]-6-methyl-4-oxanyl] ester

> <PUBCHEM_IUPAC_NAME_MARKUP>
[(2<I>S</I>,3<I>R</I>,4<I>R</I>,5<I>S</I>,6<I>S</I>)-3,5-dihydroxy-2-[[(1<I>S</I>,2<I>S</I>,4<I>S</I>,5<I>S</I>,6<I>R</I>,10<I>S</I>)-2-(hydroxymethyl)-10-[(2<I>S</I>,3<I>R</I>,4<I>S</I>,5<I>S</I>,6<I>R</I>)-3,4,5-trihydroxy-6-(hydroxymethyl)oxan-2-yl]oxy-3,9-dioxatricyclo[4.4.0.0<SUP>2,4</SUP>]dec-7-en-5-yl]oxy]-6-methyloxan-4-yl] (<I>E</I>)-3-(4-hydroxy-3-methoxyphenyl)prop-2-enoate

> <PUBCHEM_IUPAC_NAME>
[(2S,3R,4R,5S,6S)-3,5-dihydroxy-2-[[(1S,2S,4S,5S,6R,10S)-2-(hydroxymethyl)-10-[(2S,3R,4S,5S,6R)-3,4,5-trihydroxy-6-(hydroxymethyl)oxan-2-yl]oxy-3,9-dioxatricyclo[4.4.0.02,4]dec-7-en-5-yl]oxy]-6-methyloxan-4-yl] (E)-3-(4-hydroxy-3-methoxyphenyl)prop-2-enoate

> <PUBCHEM_IUPAC_SYSTEMATIC_NAME>
[(2S,3R,4R,5S,6S)-2-[[(1S,2S,4S,5S,6R,10S)-2-(hydroxymethyl)-10-[(2S,3R,4S,5S,6R)-6-(hydroxymethyl)-3,4,5-tris(oxidanyl)oxan-2-yl]oxy-3,9-dioxatricyclo[4.4.0.02,4]dec-7-en-5-yl]oxy]-6-methyl-3,5-bis(oxidanyl)oxan-4-yl] (E)-3-(3-methoxy-4-oxidanyl-phenyl)prop-2-enoate

> <PUBCHEM_IUPAC_TRADITIONAL_NAME>
(E)-3-(4-hydroxy-3-methoxy-phenyl)acrylic acid [(2S,3S,4R,5R,6S)-3,5-dihydroxy-2-methyl-6-[[(1S,2S,4S,5S,6R,10S)-2-methylol-10-[(2S,3R,4S,5S,6R)-3,4,5-trihydroxy-6-methylol-tetrahydropyran-2-yl]oxy-3,9-dioxatricyclo[4.4.0.02,4]dec-7-en-5-yl]oxy]tetrahydropyran-4-yl] ester

> <PUBCHEM_IUPAC_INCHI>
InChI=1S/C31H40O17/c1-12-20(36)26(45-18(35)6-4-13-3-5-15(34)16(9-13)41-2)24(40)30(43-12)46-25-14-7-8-42-28(19(14)31(11-33)27(25)48-31)47-29-23(39)22(38)21(37)17(10-32)44-29/h3-9,12,14,17,19-30,32-34,36-40H,10-11H2,1-2H3/b6-4+/t12-,14+,17+,19+,20-,21+,22-,23+,24+,25-,26+,27-,28-,29-,30-,31+/m0/s1

> <PUBCHEM_IUPAC_INCHIKEY>
WOLULVRGBCBAIJ-YXEQPJNBSA-N

> <PUBCHEM_XLOGP3_AA>
-2

> <PUBCHEM_EXACT_MASS>
684.22654980

> <PUBCHEM_MOLECULAR_FORMULA>
C31H40O17

> <PUBCHEM_MOLECULAR_WEIGHT>
684.6

> <PUBCHEM_OPENEYE_CAN_SMILES>
CC1C(C(C(C(O1)OC2C3C=COC(C3C4(C2O4)CO)OC5C(C(C(C(O5)CO)O)O)O)O)OC(=O)C=CC6=CC(=C(C=C6)O)OC)O

> <PUBCHEM_OPENEYE_ISO_SMILES>
C[C@H]1[C@@H]([C@H]([C@H]([C@@H](O1)O[C@H]2[C@@H]3C=CO[C@H]([C@@H]3[C@@]4([C@H]2O4)CO)O[C@H]5[C@@H]([C@H]([C@@H]([C@H](O5)CO)O)O)O)O)OC(=O)/C=C/C6=CC(=C(C=C6)O)OC)O

> <PUBCHEM_CACTVS_TPSA>
256

> <PUBCHEM_MONOISOTOPIC_WEIGHT>
684.22654980

> <PUBCHEM_TOTAL_CHARGE>
0

> <PUBCHEM_HEAVY_ATOM_COUNT>
48

> <PUBCHEM_ATOM_DEF_STEREO_COUNT>
16

> <PUBCHEM_ATOM_UDEF_STEREO_COUNT>
0

> <PUBCHEM_BOND_DEF_STEREO_COUNT>
1

> <PUBCHEM_BOND_UDEF_STEREO_COUNT>
0

> <PUBCHEM_ISOTOPIC_ATOM_COUNT>
0

> <PUBCHEM_COMPONENT_COUNT>
1

> <PUBCHEM_CACTVS_TAUTO_COUNT>
-1

> <PUBCHEM_COORDINATE_TYPE>
1
5
255

> <PUBCHEM_BONDANNOTATIONS>
31  10  6
33  11  6
34  12  5
36  13  6
18  23  5
19  49  5
21  2  6
27  2  6
20  50  6
22  52  6
32  37  5
35  38  5
24  4  6
28  4  5
42  43  8
42  44  8
43  45  8
44  46  8
45  47  8
46  47  8
29  8  5
30  9  5

$$$$
