 
  -OEChem-10192104402D

 22 22  0     1  0  0  0  0  0999 V2000
    5.1350    1.6550    0.0000 O   0  0  0  0  0  0  0  0  0  0  0  0
    6.8671    0.6550    0.0000 O   0  0  0  0  0  0  0  0  0  0  0  0
    6.8671   -1.3450    0.0000 O   0  0  0  0  0  0  0  0  0  0  0  0
    2.5369    0.1550    0.0000 O   0  0  0  0  0  0  0  0  0  0  0  0
    3.4030    1.6550    0.0000 O   0  0  0  0  0  0  0  0  0  0  0  0
    5.1350    0.6550    0.0000 C   0  0  1  0  0  0  0  0  0  0  0  0
    6.0010    0.1550    0.0000 C   0  0  1  0  0  0  0  0  0  0  0  0
    4.2690    0.1550    0.0000 C   0  0  2  0  0  0  0  0  0  0  0  0
    6.0010   -0.8450    0.0000 C   0  0  2  0  0  0  0  0  0  0  0  0
    4.2690   -0.8450    0.0000 C   0  0  0  0  0  0  0  0  0  0  0  0
    5.1350   -1.3450    0.0000 C   0  0  0  0  0  0  0  0  0  0  0  0
    3.4030    0.6550    0.0000 C   0  0  0  0  0  0  0  0  0  0  0  0
    5.6720    0.9650    0.0000 H   0  0  0  0  0  0  0  0  0  0  0  0
    6.5380   -0.1550    0.0000 H   0  0  0  0  0  0  0  0  0  0  0  0
    4.2690    0.7750    0.0000 H   0  0  0  0  0  0  0  0  0  0  0  0
    6.0010   -1.4650    0.0000 H   0  0  0  0  0  0  0  0  0  0  0  0
    3.7320   -1.1550    0.0000 H   0  0  0  0  0  0  0  0  0  0  0  0
    5.1350   -1.9650    0.0000 H   0  0  0  0  0  0  0  0  0  0  0  0
    5.6720    1.9650    0.0000 H   0  0  0  0  0  0  0  0  0  0  0  0
    7.4040    0.3450    0.0000 H   0  0  0  0  0  0  0  0  0  0  0  0
    6.8671   -1.9650    0.0000 H   0  0  0  0  0  0  0  0  0  0  0  0
    2.0000    0.4650    0.0000 H   0  0  0  0  0  0  0  0  0  0  0  0
  6  1  1  1  0  0  0
  1 19  1  0  0  0  0
  7  2  1  6  0  0  0
  2 20  1  0  0  0  0
  9  3  1  1  0  0  0
  3 21  1  0  0  0  0
  4 12  1  0  0  0  0
  4 22  1  0  0  0  0
  5 12  2  0  0  0  0
  6  7  1  0  0  0  0
  6  8  1  0  0  0  0
  6 13  1  0  0  0  0
  7  9  1  0  0  0  0
  7 14  1  0  0  0  0
  8 10  1  0  0  0  0
  8 12  1  6  0  0  0
  8 15  1  0  0  0  0
  9 11  1  0  0  0  0
  9 16  1  0  0  0  0
 10 11  2  0  0  0  0
 10 17  1  0  0  0  0
 11 18  1  0  0  0  0
M  END
> <PUBCHEM_COMPOUND_CID>
50922855

> <PUBCHEM_COMPOUND_CANONICALIZED>
1

> <PUBCHEM_CACTVS_COMPLEXITY>
212

> <PUBCHEM_CACTVS_HBOND_ACCEPTOR>
5

> <PUBCHEM_CACTVS_HBOND_DONOR>
4

> <PUBCHEM_CACTVS_ROTATABLE_BOND>
1

> <PUBCHEM_CACTVS_SUBSKEYS>
AAADccBgOAAAAAAAAAAAAAAAAAAAAAAAAAAgAAAAAAAAAAAAAAAAGgAACAAADRSggAIACAAAAgCIACDSCAAAAAAgAAAICAEAAAgBFBYAAQAAUAAF4AAJEAPKbARMAAAAAAAAAAAAAAAAAAAAAAAAAAAAAA==

> <PUBCHEM_IUPAC_OPENEYE_NAME>
(1S,4S,5R,6R)-4,5,6-trihydroxycyclohex-2-ene-1-carboxylic acid

> <PUBCHEM_IUPAC_CAS_NAME>
(1S,4S,5R,6R)-4,5,6-trihydroxy-1-cyclohex-2-enecarboxylic acid

> <PUBCHEM_IUPAC_NAME_MARKUP>
(1<I>S</I>,4<I>S</I>,5<I>R</I>,6<I>R</I>)-4,5,6-trihydroxycyclohex-2-ene-1-carboxylic acid

> <PUBCHEM_IUPAC_NAME>
(1S,4S,5R,6R)-4,5,6-trihydroxycyclohex-2-ene-1-carboxylic acid

> <PUBCHEM_IUPAC_SYSTEMATIC_NAME>
(1S,4S,5R,6R)-4,5,6-tris(oxidanyl)cyclohex-2-ene-1-carboxylic acid

> <PUBCHEM_IUPAC_TRADITIONAL_NAME>
(1S,4S,5R,6R)-4,5,6-trihydroxycyclohex-2-ene-1-carboxylic acid

> <PUBCHEM_IUPAC_INCHI>
InChI=1S/C7H10O5/c8-4-2-1-3(7(11)12)5(9)6(4)10/h1-6,8-10H,(H,11,12)/t3-,4-,5+,6+/m0/s1

> <PUBCHEM_IUPAC_INCHIKEY>
SBJBXBLDRZXEKT-UNTFVMJOSA-N

> <PUBCHEM_XLOGP3_AA>
-1.2

> <PUBCHEM_EXACT_MASS>
174.05282342

> <PUBCHEM_MOLECULAR_FORMULA>
C7H10O5

> <PUBCHEM_MOLECULAR_WEIGHT>
174.15

> <PUBCHEM_OPENEYE_CAN_SMILES>
C1=CC(C(C(C1C(=O)O)O)O)O

> <PUBCHEM_OPENEYE_ISO_SMILES>
C1=C[C@@H]([C@H]([C@@H]([C@H]1C(=O)O)O)O)O

> <PUBCHEM_CACTVS_TPSA>
98

> <PUBCHEM_MONOISOTOPIC_WEIGHT>
174.05282342

> <PUBCHEM_TOTAL_CHARGE>
0

> <PUBCHEM_HEAVY_ATOM_COUNT>
12

> <PUBCHEM_ATOM_DEF_STEREO_COUNT>
4

> <PUBCHEM_ATOM_UDEF_STEREO_COUNT>
0

> <PUBCHEM_BOND_DEF_STEREO_COUNT>
0

> <PUBCHEM_BOND_UDEF_STEREO_COUNT>
0

> <PUBCHEM_ISOTOPIC_ATOM_COUNT>
0

> <PUBCHEM_COMPONENT_COUNT>
1

> <PUBCHEM_CACTVS_TAUTO_COUNT>
-1

> <PUBCHEM_COORDINATE_TYPE>
1
5
255

> <PUBCHEM_BONDANNOTATIONS>
6  1  5
7  2  6
9  3  5
8  12  6

$$$$
