 
  -OEChem-10192103322D

 50 49  0     0  0  0  0  0  0999 V2000
    6.3301    4.8100    0.0000 O   0  0  0  0  0  0  0  0  0  0  0  0
    9.7942    4.8100    0.0000 O   0  0  0  0  0  0  0  0  0  0  0  0
    7.1962    6.3100    0.0000 O   0  0  0  0  0  0  0  0  0  0  0  0
    8.9282    6.3100    0.0000 O   0  0  0  0  0  0  0  0  0  0  0  0
    2.0000   -5.6900    0.0000 O   0  0  0  0  0  0  0  0  0  0  0  0
    3.7320   -5.6900    0.0000 O   0  0  0  0  0  0  0  0  0  0  0  0
    5.4641    0.3100    0.0000 C   0  0  0  0  0  0  0  0  0  0  0  0
    6.3301    0.8100    0.0000 C   0  0  0  0  0  0  0  0  0  0  0  0
    5.4641   -0.6900    0.0000 C   0  0  0  0  0  0  0  0  0  0  0  0
    6.3301    1.8100    0.0000 C   0  0  0  0  0  0  0  0  0  0  0  0
    4.5981   -1.1900    0.0000 C   0  0  0  0  0  0  0  0  0  0  0  0
    7.1962    2.3100    0.0000 C   0  0  0  0  0  0  0  0  0  0  0  0
    4.5981   -2.1900    0.0000 C   0  0  0  0  0  0  0  0  0  0  0  0
    7.1962    3.3100    0.0000 C   0  0  0  0  0  0  0  0  0  0  0  0
    3.7320   -2.6900    0.0000 C   0  0  0  0  0  0  0  0  0  0  0  0
    8.0622    3.8100    0.0000 C   0  0  0  0  0  0  0  0  0  0  0  0
    3.7320   -3.6900    0.0000 C   0  0  0  0  0  0  0  0  0  0  0  0
    8.0622    4.8100    0.0000 C   0  0  0  0  0  0  0  0  0  0  0  0
    2.8660   -4.1900    0.0000 C   0  0  0  0  0  0  0  0  0  0  0  0
    7.1962    5.3100    0.0000 C   0  0  0  0  0  0  0  0  0  0  0  0
    8.9282    5.3100    0.0000 C   0  0  0  0  0  0  0  0  0  0  0  0
    2.8660   -5.1900    0.0000 C   0  0  0  0  0  0  0  0  0  0  0  0
    5.2520    0.8926    0.0000 H   0  0  0  0  0  0  0  0  0  0  0  0
    4.8535    0.2023    0.0000 H   0  0  0  0  0  0  0  0  0  0  0  0
    6.5422    0.2274    0.0000 H   0  0  0  0  0  0  0  0  0  0  0  0
    6.9407    0.9177    0.0000 H   0  0  0  0  0  0  0  0  0  0  0  0
    5.6762   -1.2726    0.0000 H   0  0  0  0  0  0  0  0  0  0  0  0
    6.0747   -0.5823    0.0000 H   0  0  0  0  0  0  0  0  0  0  0  0
    6.1181    2.3926    0.0000 H   0  0  0  0  0  0  0  0  0  0  0  0
    5.7196    1.7023    0.0000 H   0  0  0  0  0  0  0  0  0  0  0  0
    4.3860   -0.6074    0.0000 H   0  0  0  0  0  0  0  0  0  0  0  0
    3.9875   -1.2977    0.0000 H   0  0  0  0  0  0  0  0  0  0  0  0
    7.4082    1.7274    0.0000 H   0  0  0  0  0  0  0  0  0  0  0  0
    7.8067    2.4177    0.0000 H   0  0  0  0  0  0  0  0  0  0  0  0
    4.8101   -2.7726    0.0000 H   0  0  0  0  0  0  0  0  0  0  0  0
    5.2087   -2.0823    0.0000 H   0  0  0  0  0  0  0  0  0  0  0  0
    6.9841    3.8926    0.0000 H   0  0  0  0  0  0  0  0  0  0  0  0
    6.5856    3.2023    0.0000 H   0  0  0  0  0  0  0  0  0  0  0  0
    3.5200   -2.1074    0.0000 H   0  0  0  0  0  0  0  0  0  0  0  0
    3.1215   -2.7977    0.0000 H   0  0  0  0  0  0  0  0  0  0  0  0
    8.2742    3.2274    0.0000 H   0  0  0  0  0  0  0  0  0  0  0  0
    8.6728    3.9177    0.0000 H   0  0  0  0  0  0  0  0  0  0  0  0
    3.9441   -4.2726    0.0000 H   0  0  0  0  0  0  0  0  0  0  0  0
    4.3426   -3.5823    0.0000 H   0  0  0  0  0  0  0  0  0  0  0  0
    8.0622    5.4300    0.0000 H   0  0  0  0  0  0  0  0  0  0  0  0
    2.6540   -3.6074    0.0000 H   0  0  0  0  0  0  0  0  0  0  0  0
    2.2554   -4.2977    0.0000 H   0  0  0  0  0  0  0  0  0  0  0  0
    5.7932    5.1200    0.0000 H   0  0  0  0  0  0  0  0  0  0  0  0
   10.3312    5.1200    0.0000 H   0  0  0  0  0  0  0  0  0  0  0  0
    2.0000   -6.3100    0.0000 H   0  0  0  0  0  0  0  0  0  0  0  0
  1 20  1  0  0  0  0
  1 48  1  0  0  0  0
  2 21  1  0  0  0  0
  2 49  1  0  0  0  0
  3 20  2  0  0  0  0
  4 21  2  0  0  0  0
  5 22  1  0  0  0  0
  5 50  1  0  0  0  0
  6 22  2  0  0  0  0
  7  8  1  0  0  0  0
  7  9  1  0  0  0  0
  7 23  1  0  0  0  0
  7 24  1  0  0  0  0
  8 10  1  0  0  0  0
  8 25  1  0  0  0  0
  8 26  1  0  0  0  0
  9 11  1  0  0  0  0
  9 27  1  0  0  0  0
  9 28  1  0  0  0  0
 10 12  1  0  0  0  0
 10 29  1  0  0  0  0
 10 30  1  0  0  0  0
 11 13  1  0  0  0  0
 11 31  1  0  0  0  0
 11 32  1  0  0  0  0
 12 14  1  0  0  0  0
 12 33  1  0  0  0  0
 12 34  1  0  0  0  0
 13 15  1  0  0  0  0
 13 35  1  0  0  0  0
 13 36  1  0  0  0  0
 14 16  1  0  0  0  0
 14 37  1  0  0  0  0
 14 38  1  0  0  0  0
 15 17  1  0  0  0  0
 15 39  1  0  0  0  0
 15 40  1  0  0  0  0
 16 18  1  0  0  0  0
 16 41  1  0  0  0  0
 16 42  1  0  0  0  0
 17 19  1  0  0  0  0
 17 43  1  0  0  0  0
 17 44  1  0  0  0  0
 18 20  1  0  0  0  0
 18 21  1  0  0  0  0
 18 45  1  0  0  0  0
 19 22  1  0  0  0  0
 19 46  1  0  0  0  0
 19 47  1  0  0  0  0
M  END
> <PUBCHEM_COMPOUND_CID>
12867463

> <PUBCHEM_COMPOUND_CANONICALIZED>
1

> <PUBCHEM_CACTVS_COMPLEXITY>
326

> <PUBCHEM_CACTVS_HBOND_ACCEPTOR>
6

> <PUBCHEM_CACTVS_HBOND_DONOR>
3

> <PUBCHEM_CACTVS_ROTATABLE_BOND>
15

> <PUBCHEM_CACTVS_SUBSKEYS>
AAADceB4OAAAAAAAAAAAAAAAAAAAAAAAAAAAAAAAAAAAAAAAAAAAGgAACAAADQCAgAAACAAAAgAIAACQCAAAAAAAAAAAAAEAAAAAABYIAAAAQAAFIAAAAAGIyOCMAAAAAAAAAAAAAAAAAAAAAAAAAAAAAA==

> <PUBCHEM_IUPAC_OPENEYE_NAME>
tridecane-1,1,13-tricarboxylic acid

> <PUBCHEM_IUPAC_CAS_NAME>
tridecane-1,1,13-tricarboxylic acid

> <PUBCHEM_IUPAC_NAME_MARKUP>
tridecane-1,1,13-tricarboxylic acid

> <PUBCHEM_IUPAC_NAME>
tridecane-1,1,13-tricarboxylic acid

> <PUBCHEM_IUPAC_SYSTEMATIC_NAME>
tridecane-1,1,13-tricarboxylic acid

> <PUBCHEM_IUPAC_TRADITIONAL_NAME>
tridecane-1,1,13-tricarboxylic acid

> <PUBCHEM_IUPAC_INCHI>
InChI=1S/C16H28O6/c17-14(18)12-10-8-6-4-2-1-3-5-7-9-11-13(15(19)20)16(21)22/h13H,1-12H2,(H,17,18)(H,19,20)(H,21,22)

> <PUBCHEM_IUPAC_INCHIKEY>
CMXPNRUFNVRVFM-UHFFFAOYSA-N

> <PUBCHEM_XLOGP3_AA>
4.6

> <PUBCHEM_EXACT_MASS>
316.18858861

> <PUBCHEM_MOLECULAR_FORMULA>
C16H28O6

> <PUBCHEM_MOLECULAR_WEIGHT>
316.39

> <PUBCHEM_OPENEYE_CAN_SMILES>
C(CCCCCCC(=O)O)CCCCCC(C(=O)O)C(=O)O

> <PUBCHEM_OPENEYE_ISO_SMILES>
C(CCCCCCC(=O)O)CCCCCC(C(=O)O)C(=O)O

> <PUBCHEM_CACTVS_TPSA>
112

> <PUBCHEM_MONOISOTOPIC_WEIGHT>
316.18858861

> <PUBCHEM_TOTAL_CHARGE>
0

> <PUBCHEM_HEAVY_ATOM_COUNT>
22

> <PUBCHEM_ATOM_DEF_STEREO_COUNT>
0

> <PUBCHEM_ATOM_UDEF_STEREO_COUNT>
0

> <PUBCHEM_BOND_DEF_STEREO_COUNT>
0

> <PUBCHEM_BOND_UDEF_STEREO_COUNT>
0

> <PUBCHEM_ISOTOPIC_ATOM_COUNT>
0

> <PUBCHEM_COMPONENT_COUNT>
1

> <PUBCHEM_CACTVS_TAUTO_COUNT>
-1

> <PUBCHEM_COORDINATE_TYPE>
1
5
255

$$$$
