 
  -OEChem-10192104062D

 70 72  0     1  0  0  0  0  0999 V2000
    5.5211    1.3106    0.0000 S   0  0  0  0  0  0  0  0  0  0  0  0
    6.1977    5.8113    0.0000 S   0  0  0  0  0  0  0  0  0  0  0  0
    7.6520    9.1894    0.0000 O   0  0  0  0  0  0  0  0  0  0  0  0
    7.1962   -3.7772    0.0000 O   0  0  0  0  0  0  0  0  0  0  0  0
    5.4641   -4.7772    0.0000 O   0  0  0  0  0  0  0  0  0  0  0  0
    8.4124    2.9661    0.0000 O   0  0  0  0  0  0  0  0  0  0  0  0
    3.7320   -6.7772    0.0000 O   0  0  0  0  0  0  0  0  0  0  0  0
    2.8660   -9.2772    0.0000 O   0  0  0  0  0  0  0  0  0  0  0  0
    6.3301   -2.2772    0.0000 N   0  0  0  0  0  0  0  0  0  0  0  0
    7.1391    1.3106    0.0000 N   0  0  0  0  0  0  0  0  0  0  0  0
    7.7800    6.5158    0.0000 N   0  0  0  0  0  0  0  0  0  0  0  0
    7.0112    3.9842    0.0000 N   0  0  0  0  0  0  0  0  0  0  0  0
    7.5990    4.7932    0.0000 N   0  0  0  0  0  0  0  0  0  0  0  0
    6.3301   -0.2772    0.0000 C   0  0  0  0  0  0  0  0  0  0  0  0
    5.4641   -0.7772    0.0000 C   0  0  0  0  0  0  0  0  0  0  0  0
    7.1962   -0.7772    0.0000 C   0  0  0  0  0  0  0  0  0  0  0  0
    5.4641   -1.7772    0.0000 C   0  0  0  0  0  0  0  0  0  0  0  0
    7.1962   -1.7772    0.0000 C   0  0  0  0  0  0  0  0  0  0  0  0
    6.3301    0.7228    0.0000 C   0  0  0  0  0  0  0  0  0  0  0  0
    7.9611    8.2384    0.0000 C   0  0  3  0  0  0  0  0  0  0  0  0
    6.3301   -3.2772    0.0000 C   0  0  0  0  0  0  0  0  0  0  0  0
    8.9611    8.2384    0.0000 C   0  0  0  0  0  0  0  0  0  0  0  0
    9.2701    9.1894    0.0000 C   0  0  0  0  0  0  0  0  0  0  0  0
    8.4611    9.7772    0.0000 C   0  0  0  0  0  0  0  0  0  0  0  0
    7.3733    7.4293    0.0000 C   0  0  0  0  0  0  0  0  0  0  0  0
    5.4641   -3.7772    0.0000 C   0  0  0  0  0  0  0  0  0  0  0  0
    6.8301    2.2616    0.0000 C   0  0  0  0  0  0  0  0  0  0  0  0
    5.8301    2.2616    0.0000 C   0  0  0  0  0  0  0  0  0  0  0  0
    7.4179    3.0707    0.0000 C   0  0  0  0  0  0  0  0  0  0  0  0
    7.1922    5.7068    0.0000 C   0  0  0  0  0  0  0  0  0  0  0  0
    4.5981   -5.2772    0.0000 C   0  0  0  0  0  0  0  0  0  0  0  0
    4.5981   -6.2772    0.0000 C   0  0  0  0  0  0  0  0  0  0  0  0
    3.7320   -7.7772    0.0000 C   0  0  0  0  0  0  0  0  0  0  0  0
    2.8660   -8.2772    0.0000 C   0  0  0  0  0  0  0  0  0  0  0  0
    2.0000   -9.7772    0.0000 C   0  0  0  0  0  0  0  0  0  0  0  0
    6.8671    0.0328    0.0000 H   0  0  0  0  0  0  0  0  0  0  0  0
    5.2520   -0.1946    0.0000 H   0  0  0  0  0  0  0  0  0  0  0  0
    4.8535   -0.8849    0.0000 H   0  0  0  0  0  0  0  0  0  0  0  0
    7.8067   -0.8849    0.0000 H   0  0  0  0  0  0  0  0  0  0  0  0
    7.4082   -0.1946    0.0000 H   0  0  0  0  0  0  0  0  0  0  0  0
    4.8535   -1.6695    0.0000 H   0  0  0  0  0  0  0  0  0  0  0  0
    5.2520   -2.3598    0.0000 H   0  0  0  0  0  0  0  0  0  0  0  0
    7.4082   -2.3598    0.0000 H   0  0  0  0  0  0  0  0  0  0  0  0
    7.8067   -1.6695    0.0000 H   0  0  0  0  0  0  0  0  0  0  0  0
    7.3487    8.3353    0.0000 H   0  0  0  0  0  0  0  0  0  0  0  0
    8.8962    7.6218    0.0000 H   0  0  0  0  0  0  0  0  0  0  0  0
    9.5675    8.1094    0.0000 H   0  0  0  0  0  0  0  0  0  0  0  0
    9.8365    8.9372    0.0000 H   0  0  0  0  0  0  0  0  0  0  0  0
    9.5801    9.7263    0.0000 H   0  0  0  0  0  0  0  0  0  0  0  0
    8.8759   10.2379    0.0000 H   0  0  0  0  0  0  0  0  0  0  0  0
    8.0462   10.2379    0.0000 H   0  0  0  0  0  0  0  0  0  0  0  0
    6.9426    7.8753    0.0000 H   0  0  0  0  0  0  0  0  0  0  0  0
    6.8593    7.0826    0.0000 H   0  0  0  0  0  0  0  0  0  0  0  0
    5.2520   -3.1946    0.0000 H   0  0  0  0  0  0  0  0  0  0  0  0
    4.8535   -3.8849    0.0000 H   0  0  0  0  0  0  0  0  0  0  0  0
    5.4657    2.7632    0.0000 H   0  0  0  0  0  0  0  0  0  0  0  0
    8.3966    6.4510    0.0000 H   0  0  0  0  0  0  0  0  0  0  0  0
    4.3860   -4.6946    0.0000 H   0  0  0  0  0  0  0  0  0  0  0  0
    3.9875   -5.3849    0.0000 H   0  0  0  0  0  0  0  0  0  0  0  0
    6.3946    4.0490    0.0000 H   0  0  0  0  0  0  0  0  0  0  0  0
    8.2156    4.7284    0.0000 H   0  0  0  0  0  0  0  0  0  0  0  0
    4.8101   -6.8598    0.0000 H   0  0  0  0  0  0  0  0  0  0  0  0
    5.2087   -6.1695    0.0000 H   0  0  0  0  0  0  0  0  0  0  0  0
    3.9441   -8.3598    0.0000 H   0  0  0  0  0  0  0  0  0  0  0  0
    4.3426   -7.6695    0.0000 H   0  0  0  0  0  0  0  0  0  0  0  0
    2.6540   -7.6946    0.0000 H   0  0  0  0  0  0  0  0  0  0  0  0
    2.2554   -8.3849    0.0000 H   0  0  0  0  0  0  0  0  0  0  0  0
    1.6900   -9.2403    0.0000 H   0  0  0  0  0  0  0  0  0  0  0  0
    1.4631  -10.0872    0.0000 H   0  0  0  0  0  0  0  0  0  0  0  0
    2.3100  -10.3141    0.0000 H   0  0  0  0  0  0  0  0  0  0  0  0
  1 19  1  0  0  0  0
  1 28  1  0  0  0  0
  2 30  2  0  0  0  0
  3 20  1  0  0  0  0
  3 24  1  0  0  0  0
  4 21  2  0  0  0  0
  5 26  1  0  0  0  0
  5 31  1  0  0  0  0
  6 29  2  0  0  0  0
  7 32  1  0  0  0  0
  7 33  1  0  0  0  0
  8 34  1  0  0  0  0
  8 35  1  0  0  0  0
  9 17  1  0  0  0  0
  9 18  1  0  0  0  0
  9 21  1  0  0  0  0
 10 19  2  0  0  0  0
 10 27  1  0  0  0  0
 11 25  1  0  0  0  0
 11 30  1  0  0  0  0
 11 57  1  0  0  0  0
 12 13  1  0  0  0  0
 12 29  1  0  0  0  0
 12 60  1  0  0  0  0
 13 30  1  0  0  0  0
 13 61  1  0  0  0  0
 14 15  1  0  0  0  0
 14 16  1  0  0  0  0
 14 19  1  0  0  0  0
 14 36  1  0  0  0  0
 15 17  1  0  0  0  0
 15 37  1  0  0  0  0
 15 38  1  0  0  0  0
 16 18  1  0  0  0  0
 16 39  1  0  0  0  0
 16 40  1  0  0  0  0
 17 41  1  0  0  0  0
 17 42  1  0  0  0  0
 18 43  1  0  0  0  0
 18 44  1  0  0  0  0
 20 22  1  0  0  0  0
 20 25  1  0  0  0  0
 20 45  1  0  0  0  0
 21 26  1  0  0  0  0
 22 23  1  0  0  0  0
 22 46  1  0  0  0  0
 22 47  1  0  0  0  0
 23 24  1  0  0  0  0
 23 48  1  0  0  0  0
 23 49  1  0  0  0  0
 24 50  1  0  0  0  0
 24 51  1  0  0  0  0
 25 52  1  0  0  0  0
 25 53  1  0  0  0  0
 26 54  1  0  0  0  0
 26 55  1  0  0  0  0
 27 28  2  0  0  0  0
 27 29  1  0  0  0  0
 28 56  1  0  0  0  0
 31 32  1  0  0  0  0
 31 58  1  0  0  0  0
 31 59  1  0  0  0  0
 32 62  1  0  0  0  0
 32 63  1  0  0  0  0
 33 34  1  0  0  0  0
 33 64  1  0  0  0  0
 33 65  1  0  0  0  0
 34 66  1  0  0  0  0
 34 67  1  0  0  0  0
 35 68  1  0  0  0  0
 35 69  1  0  0  0  0
 35 70  1  0  0  0  0
M  END
> <PUBCHEM_COMPOUND_CID>
3846530

> <PUBCHEM_COMPOUND_CANONICALIZED>
1

> <PUBCHEM_CACTVS_COMPLEXITY>
683

> <PUBCHEM_CACTVS_HBOND_ACCEPTOR>
9

> <PUBCHEM_CACTVS_HBOND_DONOR>
3

> <PUBCHEM_CACTVS_ROTATABLE_BOND>
12

> <PUBCHEM_CACTVS_SUBSKEYS>
AAADcfB7uABgAAAAAAAAAAAAAAAAAWJAAAAsAAAAAAAAAAABgAAAHgQYAAAADRzl1gajgRPqFAisAQVyVAKA8KBHCjsWIJX4JECDQAIggCQXAAAUFgKyAICQEAIKAAAAAAAAAAAAAAAAAAAAAAAAAAAAAA==

> <PUBCHEM_IUPAC_OPENEYE_NAME>
1-[[2-[1-[2-[2-(2-methoxyethoxy)ethoxy]acetyl]-4-piperidyl]thiazole-4-carbonyl]amino]-3-(tetrahydrofuran-2-ylmethyl)thiourea

> <PUBCHEM_IUPAC_CAS_NAME>
1-[[[2-[1-[2-[2-(2-methoxyethoxy)ethoxy]-1-oxoethyl]-4-piperidinyl]-4-thiazolyl]-oxomethyl]amino]-3-(2-oxolanylmethyl)thiourea

> <PUBCHEM_IUPAC_NAME_MARKUP>
1-[[2-[1-[2-[2-(2-methoxyethoxy)ethoxy]acetyl]piperidin-4-yl]-1,3-thiazole-4-carbonyl]amino]-3-(oxolan-2-ylmethyl)thiourea

> <PUBCHEM_IUPAC_NAME>
1-[[2-[1-[2-[2-(2-methoxyethoxy)ethoxy]acetyl]piperidin-4-yl]-1,3-thiazole-4-carbonyl]amino]-3-(oxolan-2-ylmethyl)thiourea

> <PUBCHEM_IUPAC_SYSTEMATIC_NAME>
1-[[2-[1-[2-[2-(2-methoxyethoxy)ethoxy]ethanoyl]piperidin-4-yl]-1,3-thiazol-4-yl]carbonylamino]-3-(oxolan-2-ylmethyl)thiourea

> <PUBCHEM_IUPAC_TRADITIONAL_NAME>
1-[[2-[1-[2-[2-(2-methoxyethoxy)ethoxy]acetyl]-4-piperidyl]thiazole-4-carbonyl]amino]-3-(tetrahydrofurfuryl)thiourea

> <PUBCHEM_IUPAC_INCHI>
InChI=1S/C22H35N5O6S2/c1-30-9-10-31-11-12-32-14-19(28)27-6-4-16(5-7-27)21-24-18(15-35-21)20(29)25-26-22(34)23-13-17-3-2-8-33-17/h15-17H,2-14H2,1H3,(H,25,29)(H2,23,26,34)

> <PUBCHEM_IUPAC_INCHIKEY>
JLSUZMWVEKWGHC-UHFFFAOYSA-N

> <PUBCHEM_XLOGP3_AA>
0.6

> <PUBCHEM_EXACT_MASS>
529.20287620

> <PUBCHEM_MOLECULAR_FORMULA>
C22H35N5O6S2

> <PUBCHEM_MOLECULAR_WEIGHT>
529.7

> <PUBCHEM_OPENEYE_CAN_SMILES>
COCCOCCOCC(=O)N1CCC(CC1)C2=NC(=CS2)C(=O)NNC(=S)NCC3CCCO3

> <PUBCHEM_OPENEYE_ISO_SMILES>
COCCOCCOCC(=O)N1CCC(CC1)C2=NC(=CS2)C(=O)NNC(=S)NCC3CCCO3

> <PUBCHEM_CACTVS_TPSA>
184

> <PUBCHEM_MONOISOTOPIC_WEIGHT>
529.20287620

> <PUBCHEM_TOTAL_CHARGE>
0

> <PUBCHEM_HEAVY_ATOM_COUNT>
35

> <PUBCHEM_ATOM_DEF_STEREO_COUNT>
0

> <PUBCHEM_ATOM_UDEF_STEREO_COUNT>
1

> <PUBCHEM_BOND_DEF_STEREO_COUNT>
0

> <PUBCHEM_BOND_UDEF_STEREO_COUNT>
0

> <PUBCHEM_ISOTOPIC_ATOM_COUNT>
0

> <PUBCHEM_COMPONENT_COUNT>
1

> <PUBCHEM_CACTVS_TAUTO_COUNT>
-1

> <PUBCHEM_COORDINATE_TYPE>
1
5
255

> <PUBCHEM_BONDANNOTATIONS>
1  19  8
1  28  8
10  19  8
10  27  8
20  25  3
27  28  8

$$$$
