 
  -OEChem-10192104042D

 36 35  0     1  0  0  0  0  0999 V2000
   10.6603   -1.0950    0.0000 O   0  0  0  0  0  0  0  0  0  0  0  0
    2.8660    0.4050    0.0000 O   0  0  0  0  0  0  0  0  0  0  0  0
   12.3923   -0.0950    0.0000 O   0  0  0  0  0  0  0  0  0  0  0  0
   11.5263    1.4050    0.0000 O   0  0  0  0  0  0  0  0  0  0  0  0
    3.7320   -1.0950    0.0000 O   0  0  0  0  0  0  0  0  0  0  0  0
    8.0622    0.4050    0.0000 C   0  0  0  0  0  0  0  0  0  0  0  0
    7.1962   -0.0950    0.0000 C   0  0  0  0  0  0  0  0  0  0  0  0
    8.9282   -0.0950    0.0000 C   0  0  0  0  0  0  0  0  0  0  0  0
    6.3301    0.4050    0.0000 C   0  0  0  0  0  0  0  0  0  0  0  0
    9.7942    0.4050    0.0000 C   0  0  0  0  0  0  0  0  0  0  0  0
    5.4641   -0.0950    0.0000 C   0  0  0  0  0  0  0  0  0  0  0  0
   10.6603   -0.0950    0.0000 C   0  0  2  0  0  0  0  0  0  0  0  0
    4.5981    0.4050    0.0000 C   0  0  0  0  0  0  0  0  0  0  0  0
   11.5263    0.4050    0.0000 C   0  0  0  0  0  0  0  0  0  0  0  0
    3.7320   -0.0950    0.0000 C   0  0  0  0  0  0  0  0  0  0  0  0
    2.0000   -0.0950    0.0000 C   0  0  0  0  0  0  0  0  0  0  0  0
    8.4607    0.8799    0.0000 H   0  0  0  0  0  0  0  0  0  0  0  0
    7.6636    0.8799    0.0000 H   0  0  0  0  0  0  0  0  0  0  0  0
    6.7976   -0.5699    0.0000 H   0  0  0  0  0  0  0  0  0  0  0  0
    7.5947   -0.5699    0.0000 H   0  0  0  0  0  0  0  0  0  0  0  0
    8.5297   -0.5699    0.0000 H   0  0  0  0  0  0  0  0  0  0  0  0
    9.3267   -0.5699    0.0000 H   0  0  0  0  0  0  0  0  0  0  0  0
    6.7287    0.8799    0.0000 H   0  0  0  0  0  0  0  0  0  0  0  0
    5.9316    0.8799    0.0000 H   0  0  0  0  0  0  0  0  0  0  0  0
   10.1928    0.8799    0.0000 H   0  0  0  0  0  0  0  0  0  0  0  0
    9.3957    0.8799    0.0000 H   0  0  0  0  0  0  0  0  0  0  0  0
    5.0656   -0.5699    0.0000 H   0  0  0  0  0  0  0  0  0  0  0  0
    5.8626   -0.5699    0.0000 H   0  0  0  0  0  0  0  0  0  0  0  0
   11.1972   -0.4050    0.0000 H   0  0  0  0  0  0  0  0  0  0  0  0
    4.9966    0.8799    0.0000 H   0  0  0  0  0  0  0  0  0  0  0  0
    4.1996    0.8799    0.0000 H   0  0  0  0  0  0  0  0  0  0  0  0
   10.1233   -1.4050    0.0000 H   0  0  0  0  0  0  0  0  0  0  0  0
   12.9292    0.2150    0.0000 H   0  0  0  0  0  0  0  0  0  0  0  0
    1.6900    0.4419    0.0000 H   0  0  0  0  0  0  0  0  0  0  0  0
    1.4631   -0.4050    0.0000 H   0  0  0  0  0  0  0  0  0  0  0  0
    2.3100   -0.6319    0.0000 H   0  0  0  0  0  0  0  0  0  0  0  0
 12  1  1  6  0  0  0
  1 32  1  0  0  0  0
  2 15  1  0  0  0  0
  2 16  1  0  0  0  0
  3 14  1  0  0  0  0
  3 33  1  0  0  0  0
  4 14  2  0  0  0  0
  5 15  2  0  0  0  0
  6  7  1  0  0  0  0
  6  8  1  0  0  0  0
  6 17  1  0  0  0  0
  6 18  1  0  0  0  0
  7  9  1  0  0  0  0
  7 19  1  0  0  0  0
  7 20  1  0  0  0  0
  8 10  1  0  0  0  0
  8 21  1  0  0  0  0
  8 22  1  0  0  0  0
  9 11  1  0  0  0  0
  9 23  1  0  0  0  0
  9 24  1  0  0  0  0
 10 12  1  0  0  0  0
 10 25  1  0  0  0  0
 10 26  1  0  0  0  0
 11 13  1  0  0  0  0
 11 27  1  0  0  0  0
 11 28  1  0  0  0  0
 12 14  1  0  0  0  0
 12 29  1  0  0  0  0
 13 15  1  0  0  0  0
 13 30  1  0  0  0  0
 13 31  1  0  0  0  0
 16 34  1  0  0  0  0
 16 35  1  0  0  0  0
 16 36  1  0  0  0  0
M  END
> <PUBCHEM_COMPOUND_CID>
100954072

> <PUBCHEM_COMPOUND_CANONICALIZED>
1

> <PUBCHEM_CACTVS_COMPLEXITY>
214

> <PUBCHEM_CACTVS_HBOND_ACCEPTOR>
5

> <PUBCHEM_CACTVS_HBOND_DONOR>
2

> <PUBCHEM_CACTVS_ROTATABLE_BOND>
10

> <PUBCHEM_CACTVS_SUBSKEYS>
AAADceBwOAAAAAAAAAAAAAAAAAAAAAAAAAAAAAAAAAAAAAAAAAAAGgAACAAACBSggAICCAAABgAIAACQCAIAAAAAAAAAAAFAAAABEBIAAAAAQAAEAAABAAGIyKCAAAAAAAAAAAAAAAAAAAAAAAAAAAAAAA==

> <PUBCHEM_IUPAC_OPENEYE_NAME>
(2R)-2-hydroxy-10-methoxy-10-oxo-decanoic acid

> <PUBCHEM_IUPAC_CAS_NAME>
(2R)-2-hydroxy-10-methoxy-10-oxodecanoic acid

> <PUBCHEM_IUPAC_NAME_MARKUP>
(2<I>R</I>)-2-hydroxy-10-methoxy-10-oxodecanoic acid

> <PUBCHEM_IUPAC_NAME>
(2R)-2-hydroxy-10-methoxy-10-oxodecanoic acid

> <PUBCHEM_IUPAC_SYSTEMATIC_NAME>
(2R)-10-methoxy-2-oxidanyl-10-oxidanylidene-decanoic acid

> <PUBCHEM_IUPAC_TRADITIONAL_NAME>
(2R)-2-hydroxy-10-keto-10-methoxy-capric acid

> <PUBCHEM_IUPAC_INCHI>
InChI=1S/C11H20O5/c1-16-10(13)8-6-4-2-3-5-7-9(12)11(14)15/h9,12H,2-8H2,1H3,(H,14,15)/t9-/m1/s1

> <PUBCHEM_IUPAC_INCHIKEY>
QEQITLJQKPGDKL-SECBINFHSA-N

> <PUBCHEM_XLOGP3_AA>
1.7

> <PUBCHEM_EXACT_MASS>
232.13107373

> <PUBCHEM_MOLECULAR_FORMULA>
C11H20O5

> <PUBCHEM_MOLECULAR_WEIGHT>
232.27

> <PUBCHEM_OPENEYE_CAN_SMILES>
COC(=O)CCCCCCCC(C(=O)O)O

> <PUBCHEM_OPENEYE_ISO_SMILES>
COC(=O)CCCCCCC[C@H](C(=O)O)O

> <PUBCHEM_CACTVS_TPSA>
83.8

> <PUBCHEM_MONOISOTOPIC_WEIGHT>
232.13107373

> <PUBCHEM_TOTAL_CHARGE>
0

> <PUBCHEM_HEAVY_ATOM_COUNT>
16

> <PUBCHEM_ATOM_DEF_STEREO_COUNT>
1

> <PUBCHEM_ATOM_UDEF_STEREO_COUNT>
0

> <PUBCHEM_BOND_DEF_STEREO_COUNT>
0

> <PUBCHEM_BOND_UDEF_STEREO_COUNT>
0

> <PUBCHEM_ISOTOPIC_ATOM_COUNT>
0

> <PUBCHEM_COMPONENT_COUNT>
1

> <PUBCHEM_CACTVS_TAUTO_COUNT>
-1

> <PUBCHEM_COORDINATE_TYPE>
1
5
255

> <PUBCHEM_BONDANNOTATIONS>
12  1  6

$$$$
