 
  -OEChem-10192103412D

 54 55  0     0  0  0  0  0  0999 V2000
    4.5000   -4.1656    0.0000 O   0  0  0  0  0  0  0  0  0  0  0  0
    7.5000    4.4947    0.0000 O   0  0  0  0  0  0  0  0  0  0  0  0
    3.0000   -5.0316    0.0000 O   0  0  0  0  0  0  0  0  0  0  0  0
    9.0000    3.6286    0.0000 O   0  0  0  0  0  0  0  0  0  0  0  0
    2.0000    1.8966    0.0000 O   0  0  0  0  0  0  0  0  0  0  0  0
    3.0000   -3.2996    0.0000 C   0  0  0  0  0  0  0  0  0  0  0  0
    7.5000    2.7626    0.0000 C   0  0  0  0  0  0  0  0  0  0  0  0
    2.1340   -3.7996    0.0000 C   0  0  0  0  0  0  0  0  0  0  0  0
    2.1340   -2.7996    0.0000 C   0  0  0  0  0  0  0  0  0  0  0  0
    7.5000    1.7626    0.0000 C   0  0  0  0  0  0  0  0  0  0  0  0
    8.3660    2.2626    0.0000 C   0  0  0  0  0  0  0  0  0  0  0  0
    3.5000   -2.4335    0.0000 C   0  0  0  0  0  0  0  0  0  0  0  0
    6.5000    2.7626    0.0000 C   0  0  0  0  0  0  0  0  0  0  0  0
    3.0000   -1.5675    0.0000 C   0  0  0  0  0  0  0  0  0  0  0  0
    6.0000    1.8966    0.0000 C   0  0  0  0  0  0  0  0  0  0  0  0
    3.5000   -4.1656    0.0000 C   0  0  0  0  0  0  0  0  0  0  0  0
    8.0000    3.6286    0.0000 C   0  0  0  0  0  0  0  0  0  0  0  0
    3.5000   -0.7015    0.0000 C   0  0  0  0  0  0  0  0  0  0  0  0
    5.0000    1.8966    0.0000 C   0  0  0  0  0  0  0  0  0  0  0  0
    3.5000    1.0306    0.0000 C   0  0  0  0  0  0  0  0  0  0  0  0
    3.0000    0.1645    0.0000 C   0  0  0  0  0  0  0  0  0  0  0  0
    4.5000    1.0306    0.0000 C   0  0  0  0  0  0  0  0  0  0  0  0
    3.0000    1.8966    0.0000 C   0  0  0  0  0  0  0  0  0  0  0  0
    3.5000    2.7626    0.0000 C   0  0  0  0  0  0  0  0  0  0  0  0
    1.5234   -3.9072    0.0000 H   0  0  0  0  0  0  0  0  0  0  0  0
    2.3460   -4.3822    0.0000 H   0  0  0  0  0  0  0  0  0  0  0  0
    2.3460   -2.2170    0.0000 H   0  0  0  0  0  0  0  0  0  0  0  0
    1.5234   -2.6919    0.0000 H   0  0  0  0  0  0  0  0  0  0  0  0
    6.8894    1.6550    0.0000 H   0  0  0  0  0  0  0  0  0  0  0  0
    7.7120    1.1800    0.0000 H   0  0  0  0  0  0  0  0  0  0  0  0
    8.7646    1.7877    0.0000 H   0  0  0  0  0  0  0  0  0  0  0  0
    8.7646    2.7376    0.0000 H   0  0  0  0  0  0  0  0  0  0  0  0
    3.9750   -2.8321    0.0000 H   0  0  0  0  0  0  0  0  0  0  0  0
    3.9750   -2.0350    0.0000 H   0  0  0  0  0  0  0  0  0  0  0  0
    6.6077    3.3732    0.0000 H   0  0  0  0  0  0  0  0  0  0  0  0
    5.9174    2.9747    0.0000 H   0  0  0  0  0  0  0  0  0  0  0  0
    2.5250   -1.1690    0.0000 H   0  0  0  0  0  0  0  0  0  0  0  0
    2.5250   -1.9660    0.0000 H   0  0  0  0  0  0  0  0  0  0  0  0
    5.8923    1.2860    0.0000 H   0  0  0  0  0  0  0  0  0  0  0  0
    6.5826    1.6845    0.0000 H   0  0  0  0  0  0  0  0  0  0  0  0
    3.9750   -1.1000    0.0000 H   0  0  0  0  0  0  0  0  0  0  0  0
    3.9750   -0.3030    0.0000 H   0  0  0  0  0  0  0  0  0  0  0  0
    5.1077    2.5072    0.0000 H   0  0  0  0  0  0  0  0  0  0  0  0
    4.4174    2.1086    0.0000 H   0  0  0  0  0  0  0  0  0  0  0  0
    3.8100    1.5675    0.0000 H   0  0  0  0  0  0  0  0  0  0  0  0
    2.5250    0.5631    0.0000 H   0  0  0  0  0  0  0  0  0  0  0  0
    2.5250   -0.2340    0.0000 H   0  0  0  0  0  0  0  0  0  0  0  0
    4.3923    0.4200    0.0000 H   0  0  0  0  0  0  0  0  0  0  0  0
    5.0826    0.8185    0.0000 H   0  0  0  0  0  0  0  0  0  0  0  0
    4.8100   -4.7025    0.0000 H   0  0  0  0  0  0  0  0  0  0  0  0
    7.8100    5.0316    0.0000 H   0  0  0  0  0  0  0  0  0  0  0  0
    4.0369    2.4526    0.0000 H   0  0  0  0  0  0  0  0  0  0  0  0
    3.8100    3.2996    0.0000 H   0  0  0  0  0  0  0  0  0  0  0  0
    2.9631    3.0726    0.0000 H   0  0  0  0  0  0  0  0  0  0  0  0
  1 16  1  0  0  0  0
  1 50  1  0  0  0  0
  2 17  1  0  0  0  0
  2 51  1  0  0  0  0
  3 16  2  0  0  0  0
  4 17  2  0  0  0  0
  5 23  2  0  0  0  0
  6  8  1  0  0  0  0
  6  9  1  0  0  0  0
  6 12  1  0  0  0  0
  6 16  1  0  0  0  0
  7 10  1  0  0  0  0
  7 11  1  0  0  0  0
  7 13  1  0  0  0  0
  7 17  1  0  0  0  0
  8  9  1  0  0  0  0
  8 25  1  0  0  0  0
  8 26  1  0  0  0  0
  9 27  1  0  0  0  0
  9 28  1  0  0  0  0
 10 11  1  0  0  0  0
 10 29  1  0  0  0  0
 10 30  1  0  0  0  0
 11 31  1  0  0  0  0
 11 32  1  0  0  0  0
 12 14  1  0  0  0  0
 12 33  1  0  0  0  0
 12 34  1  0  0  0  0
 13 15  1  0  0  0  0
 13 35  1  0  0  0  0
 13 36  1  0  0  0  0
 14 18  1  0  0  0  0
 14 37  1  0  0  0  0
 14 38  1  0  0  0  0
 15 19  1  0  0  0  0
 15 39  1  0  0  0  0
 15 40  1  0  0  0  0
 18 21  1  0  0  0  0
 18 41  1  0  0  0  0
 18 42  1  0  0  0  0
 19 22  1  0  0  0  0
 19 43  1  0  0  0  0
 19 44  1  0  0  0  0
 20 21  1  0  0  0  0
 20 22  1  0  0  0  0
 20 23  1  0  0  0  0
 20 45  1  0  0  0  0
 21 46  1  0  0  0  0
 21 47  1  0  0  0  0
 22 48  1  0  0  0  0
 22 49  1  0  0  0  0
 23 24  1  0  0  0  0
 24 52  1  0  0  0  0
 24 53  1  0  0  0  0
 24 54  1  0  0  0  0
M  END
> <PUBCHEM_COMPOUND_CID>
59125143

> <PUBCHEM_COMPOUND_CANONICALIZED>
1

> <PUBCHEM_CACTVS_COMPLEXITY>
450

> <PUBCHEM_CACTVS_HBOND_ACCEPTOR>
5

> <PUBCHEM_CACTVS_HBOND_DONOR>
2

> <PUBCHEM_CACTVS_ROTATABLE_BOND>
13

> <PUBCHEM_CACTVS_SUBSKEYS>
AAADceB4OAAAAAAAAAAAAAAAGDAAAAAAAAAAAAAAAAAAAAAAAAAAGgAACAAADwSAgAACCAAAAgAIAICQCAAAAAAAAAAAAAEAAAAAABIAAAAAQAAEAAAAAAGIyOCPAAAAAAAAAAAAAAAAAAAAAAAAAAAAAA==

> <PUBCHEM_IUPAC_OPENEYE_NAME>
1-[5-acetyl-9-(1-carboxycyclopropyl)nonyl]cyclopropanecarboxylic acid

> <PUBCHEM_IUPAC_CAS_NAME>
1-[5-acetyl-9-(1-carboxycyclopropyl)nonyl]-1-cyclopropanecarboxylic acid

> <PUBCHEM_IUPAC_NAME_MARKUP>
1-[5-acetyl-9-(1-carboxycyclopropyl)nonyl]cyclopropane-1-carboxylic acid

> <PUBCHEM_IUPAC_NAME>
1-[5-acetyl-9-(1-carboxycyclopropyl)nonyl]cyclopropane-1-carboxylic acid

> <PUBCHEM_IUPAC_SYSTEMATIC_NAME>
1-[9-(1-carboxycyclopropyl)-5-ethanoyl-nonyl]cyclopropane-1-carboxylic acid

> <PUBCHEM_IUPAC_TRADITIONAL_NAME>
1-[5-acetyl-9-(1-carboxycyclopropyl)nonyl]cyclopropanecarboxylic acid

> <PUBCHEM_IUPAC_INCHI>
InChI=1S/C19H30O5/c1-14(20)15(6-2-4-8-18(10-11-18)16(21)22)7-3-5-9-19(12-13-19)17(23)24/h15H,2-13H2,1H3,(H,21,22)(H,23,24)

> <PUBCHEM_IUPAC_INCHIKEY>
HQEMQYCETZUYSI-UHFFFAOYSA-N

> <PUBCHEM_XLOGP3_AA>
3.2

> <PUBCHEM_EXACT_MASS>
338.20932405

> <PUBCHEM_MOLECULAR_FORMULA>
C19H30O5

> <PUBCHEM_MOLECULAR_WEIGHT>
338.4

> <PUBCHEM_OPENEYE_CAN_SMILES>
CC(=O)C(CCCCC1(CC1)C(=O)O)CCCCC2(CC2)C(=O)O

> <PUBCHEM_OPENEYE_ISO_SMILES>
CC(=O)C(CCCCC1(CC1)C(=O)O)CCCCC2(CC2)C(=O)O

> <PUBCHEM_CACTVS_TPSA>
91.7

> <PUBCHEM_MONOISOTOPIC_WEIGHT>
338.20932405

> <PUBCHEM_TOTAL_CHARGE>
0

> <PUBCHEM_HEAVY_ATOM_COUNT>
24

> <PUBCHEM_ATOM_DEF_STEREO_COUNT>
0

> <PUBCHEM_ATOM_UDEF_STEREO_COUNT>
0

> <PUBCHEM_BOND_DEF_STEREO_COUNT>
0

> <PUBCHEM_BOND_UDEF_STEREO_COUNT>
0

> <PUBCHEM_ISOTOPIC_ATOM_COUNT>
0

> <PUBCHEM_COMPONENT_COUNT>
1

> <PUBCHEM_CACTVS_TAUTO_COUNT>
-1

> <PUBCHEM_COORDINATE_TYPE>
1
5
255

$$$$
