 
  -OEChem-10192104292D

 52 55  0     1  0  0  0  0  0999 V2000
    5.4641   -1.3704    0.0000 S   0  0  0  0  0  0  0  0  0  0  0  0
    2.8660    0.1296    0.0000 S   0  0  0  0  0  0  0  0  0  0  0  0
    8.0441    0.8423    0.0000 O   0  0  0  0  0  0  0  0  0  0  0  0
    6.3301    2.1296    0.0000 O   0  0  0  0  0  0  0  0  0  0  0  0
    4.5981    2.1296    0.0000 O   0  0  0  0  0  0  0  0  0  0  0  0
    9.2713   -0.3609    0.0000 O   0  0  0  0  0  0  0  0  0  0  0  0
    9.4554   -3.0003    0.0000 O   0  0  0  0  0  0  0  0  0  0  0  0
    2.8660    3.1296    0.0000 O   0  0  0  0  0  0  0  0  0  0  0  0
    2.0000    1.6296    0.0000 O   0  0  0  0  0  0  0  0  0  0  0  0
    6.3301    0.1296    0.0000 N   0  0  0  0  0  0  0  0  0  0  0  0
    8.0441   -1.5831    0.0000 N   0  0  0  0  0  0  0  0  0  0  0  0
    2.0570   -1.4582    0.0000 N   0  0  0  0  0  0  0  0  0  0  0  0
    3.6750   -1.4582    0.0000 N   0  0  0  0  0  0  0  0  0  0  0  0
    2.3660   -2.4093    0.0000 N   0  0  0  0  0  0  0  0  0  0  0  0
    3.3660   -2.4093    0.0000 N   0  0  0  0  0  0  0  0  0  0  0  0
    6.3301   -0.8704    0.0000 C   0  0  2  0  0  0  0  0  0  0  0  0
    7.3384   -0.8746    0.0000 C   0  0  3  0  0  0  0  0  0  0  0  0
    7.3384    0.1337    0.0000 C   0  0  0  0  0  0  0  0  0  0  0  0
    5.4641    0.6296    0.0000 C   0  0  0  0  0  0  0  0  0  0  0  0
    4.5981    0.1296    0.0000 C   0  0  0  0  0  0  0  0  0  0  0  0
    4.5981   -0.8704    0.0000 C   0  0  0  0  0  0  0  0  0  0  0  0
    3.7320    0.6296    0.0000 C   0  0  3  0  0  0  0  0  0  0  0  0
    5.4641    1.6296    0.0000 C   0  0  0  0  0  0  0  0  0  0  0  0
    9.0105   -1.3263    0.0000 C   0  0  0  0  0  0  0  0  0  0  0  0
    3.7320    1.6296    0.0000 C   0  0  0  0  0  0  0  0  0  0  0  0
    9.7162   -2.0349    0.0000 C   0  0  3  0  0  0  0  0  0  0  0  0
    2.8660    2.1296    0.0000 C   0  0  0  0  0  0  0  0  0  0  0  0
   10.6826   -1.7780    0.0000 C   0  0  0  0  0  0  0  0  0  0  0  0
    2.8660   -0.8704    0.0000 C   0  0  0  0  0  0  0  0  0  0  0  0
   10.9434   -0.8126    0.0000 C   0  0  0  0  0  0  0  0  0  0  0  0
   11.3883   -2.4866    0.0000 C   0  0  0  0  0  0  0  0  0  0  0  0
   11.9099   -0.5558    0.0000 C   0  0  0  0  0  0  0  0  0  0  0  0
   12.3547   -2.2298    0.0000 C   0  0  0  0  0  0  0  0  0  0  0  0
   12.6155   -1.2644    0.0000 C   0  0  0  0  0  0  0  0  0  0  0  0
    6.5484   -1.6919    0.0000 H   0  0  0  0  0  0  0  0  0  0  0  0
    7.9115   -0.6379    0.0000 H   0  0  0  0  0  0  0  0  0  0  0  0
    3.9875   -0.7628    0.0000 H   0  0  0  0  0  0  0  0  0  0  0  0
    4.3860   -1.4530    0.0000 H   0  0  0  0  0  0  0  0  0  0  0  0
    7.8824   -2.1817    0.0000 H   0  0  0  0  0  0  0  0  0  0  0  0
    3.1951    0.9396    0.0000 H   0  0  0  0  0  0  0  0  0  0  0  0
    4.3426    1.5219    0.0000 H   0  0  0  0  0  0  0  0  0  0  0  0
    3.9441    2.2122    0.0000 H   0  0  0  0  0  0  0  0  0  0  0  0
   10.1537   -2.4742    0.0000 H   0  0  0  0  0  0  0  0  0  0  0  0
    6.3301    2.7496    0.0000 H   0  0  0  0  0  0  0  0  0  0  0  0
    9.8929   -3.4396    0.0000 H   0  0  0  0  0  0  0  0  0  0  0  0
   10.5059   -0.3733    0.0000 H   0  0  0  0  0  0  0  0  0  0  0  0
   11.2266   -3.0851    0.0000 H   0  0  0  0  0  0  0  0  0  0  0  0
    2.3291    3.4396    0.0000 H   0  0  0  0  0  0  0  0  0  0  0  0
   12.0716    0.0427    0.0000 H   0  0  0  0  0  0  0  0  0  0  0  0
   12.7922   -2.6691    0.0000 H   0  0  0  0  0  0  0  0  0  0  0  0
   13.2147   -1.1051    0.0000 H   0  0  0  0  0  0  0  0  0  0  0  0
    2.0016   -2.9109    0.0000 H   0  0  0  0  0  0  0  0  0  0  0  0
  1 16  1  0  0  0  0
  1 21  1  0  0  0  0
  2 22  1  0  0  0  0
  2 29  1  0  0  0  0
  3 18  2  0  0  0  0
  4 23  1  0  0  0  0
  4 44  1  0  0  0  0
  5 23  2  0  0  0  0
  6 24  2  0  0  0  0
  7 26  1  0  0  0  0
  7 45  1  0  0  0  0
  8 27  1  0  0  0  0
  8 48  1  0  0  0  0
  9 27  2  0  0  0  0
 10 16  1  0  0  0  0
 10 18  1  0  0  0  0
 10 19  1  0  0  0  0
 11 17  1  0  0  0  0
 11 24  1  0  0  0  0
 11 39  1  0  0  0  0
 12 14  1  0  0  0  0
 12 29  2  0  0  0  0
 13 15  2  0  0  0  0
 13 29  1  0  0  0  0
 14 15  1  0  0  0  0
 14 52  1  0  0  0  0
 16 17  1  0  0  0  0
 16 35  1  1  0  0  0
 17 18  1  0  0  0  0
 17 36  1  0  0  0  0
 19 20  2  0  0  0  0
 19 23  1  0  0  0  0
 20 21  1  0  0  0  0
 20 22  1  0  0  0  0
 21 37  1  0  0  0  0
 21 38  1  0  0  0  0
 22 25  1  0  0  0  0
 22 40  1  0  0  0  0
 24 26  1  0  0  0  0
 25 27  1  0  0  0  0
 25 41  1  0  0  0  0
 25 42  1  0  0  0  0
 26 28  1  0  0  0  0
 26 43  1  0  0  0  0
 28 30  2  0  0  0  0
 28 31  1  0  0  0  0
 30 32  1  0  0  0  0
 30 46  1  0  0  0  0
 31 33  2  0  0  0  0
 31 47  1  0  0  0  0
 32 34  2  0  0  0  0
 32 49  1  0  0  0  0
 33 34  1  0  0  0  0
 33 50  1  0  0  0  0
 34 51  1  0  0  0  0
M  END
> <PUBCHEM_COMPOUND_CID>
22818305

> <PUBCHEM_COMPOUND_CANONICALIZED>
1

> <PUBCHEM_CACTVS_COMPLEXITY>
883

> <PUBCHEM_CACTVS_HBOND_ACCEPTOR>
12

> <PUBCHEM_CACTVS_HBOND_DONOR>
5

> <PUBCHEM_CACTVS_ROTATABLE_BOND>
9

> <PUBCHEM_CACTVS_SUBSKEYS>
AAADceB7uABgAAAAAAAAAAAAAABYAWAAAAAwQAAAAAAQAAABwAAAHgQYCAAADDzl2AaxGIfCAgiqAiXSeAICAAJgABAMqIHICMgKdjqglTGUcAAk1gG4mQeYyKCOAAAAAAAAAAAAAAAAAAAAAAAAAAAAAA==

> <PUBCHEM_IUPAC_OPENEYE_NAME>
(6S)-3-[2-carboxy-1-(2H-tetrazol-5-ylsulfanyl)ethyl]-7-[(2-hydroxy-2-phenyl-acetyl)amino]-8-oxo-5-thia-1-azabicyclo[4.2.0]oct-2-ene-2-carboxylic acid

> <PUBCHEM_IUPAC_CAS_NAME>
(6S)-3-[2-carboxy-1-(2H-tetrazol-5-ylthio)ethyl]-7-[(2-hydroxy-1-oxo-2-phenylethyl)amino]-8-oxo-5-thia-1-azabicyclo[4.2.0]oct-2-ene-2-carboxylic acid

> <PUBCHEM_IUPAC_NAME_MARKUP>
(6<I>S</I>)-3-[2-carboxy-1-(2<I>H</I>-tetrazol-5-ylsulfanyl)ethyl]-7-[(2-hydroxy-2-phenylacetyl)amino]-8-oxo-5-thia-1-azabicyclo[4.2.0]oct-2-ene-2-carboxylic acid

> <PUBCHEM_IUPAC_NAME>
(6S)-3-[2-carboxy-1-(2H-tetrazol-5-ylsulfanyl)ethyl]-7-[(2-hydroxy-2-phenylacetyl)amino]-8-oxo-5-thia-1-azabicyclo[4.2.0]oct-2-ene-2-carboxylic acid

> <PUBCHEM_IUPAC_SYSTEMATIC_NAME>
(6S)-8-oxidanylidene-3-[3-oxidanyl-3-oxidanylidene-1-(2H-1,2,3,4-tetrazol-5-ylsulfanyl)propyl]-7-[(2-oxidanyl-2-phenyl-ethanoyl)amino]-5-thia-1-azabicyclo[4.2.0]oct-2-ene-2-carboxylic acid

> <PUBCHEM_IUPAC_TRADITIONAL_NAME>
(6S)-3-[2-carboxy-1-(2H-tetrazol-5-ylthio)ethyl]-8-keto-7-(mandeloylamino)-5-thia-1-azabicyclo[4.2.0]oct-2-ene-2-carboxylic acid

> <PUBCHEM_IUPAC_INCHI>
InChI=1S/C19H18N6O7S2/c26-11(27)6-10(34-19-21-23-24-22-19)9-7-33-17-12(16(30)25(17)13(9)18(31)32)20-15(29)14(28)8-4-2-1-3-5-8/h1-5,10,12,14,17,28H,6-7H2,(H,20,29)(H,26,27)(H,31,32)(H,21,22,23,24)/t10?,12?,14?,17-/m0/s1

> <PUBCHEM_IUPAC_INCHIKEY>
GIOKHTGMELBPFM-JQJNJVKFSA-N

> <PUBCHEM_XLOGP3>
-0.5

> <PUBCHEM_EXACT_MASS>
506.06783928

> <PUBCHEM_MOLECULAR_FORMULA>
C19H18N6O7S2

> <PUBCHEM_MOLECULAR_WEIGHT>
506.5

> <PUBCHEM_OPENEYE_CAN_SMILES>
C1C(=C(N2C(S1)C(C2=O)NC(=O)C(C3=CC=CC=C3)O)C(=O)O)C(CC(=O)O)SC4=NNN=N4

> <PUBCHEM_OPENEYE_ISO_SMILES>
C1C(=C(N2[C@@H](S1)C(C2=O)NC(=O)C(C3=CC=CC=C3)O)C(=O)O)C(CC(=O)O)SC4=NNN=N4

> <PUBCHEM_CACTVS_TPSA>
249

> <PUBCHEM_MONOISOTOPIC_WEIGHT>
506.06783928

> <PUBCHEM_TOTAL_CHARGE>
0

> <PUBCHEM_HEAVY_ATOM_COUNT>
34

> <PUBCHEM_ATOM_DEF_STEREO_COUNT>
1

> <PUBCHEM_ATOM_UDEF_STEREO_COUNT>
3

> <PUBCHEM_BOND_DEF_STEREO_COUNT>
0

> <PUBCHEM_BOND_UDEF_STEREO_COUNT>
0

> <PUBCHEM_ISOTOPIC_ATOM_COUNT>
0

> <PUBCHEM_COMPONENT_COUNT>
1

> <PUBCHEM_CACTVS_TAUTO_COUNT>
-1

> <PUBCHEM_COORDINATE_TYPE>
1
5
255

> <PUBCHEM_BONDANNOTATIONS>
17  11  3
12  14  8
12  29  8
13  15  8
13  29  8
14  15  8
16  35  5
22  25  3
28  30  8
28  31  8
30  32  8
31  33  8
32  34  8
33  34  8
26  7  3

$$$$
