 
  -OEChem-10192104272D

 73 74  0     1  0  0  0  0  0999 V2000
    6.0010    2.0000    0.0000 S   0  0  0  0  0  0  0  0  0  0  0  0
    9.4651   -2.0000    0.0000 S   0  0  0  0  0  0  0  0  0  0  0  0
    4.2690    2.0000    0.0000 O   0  0  0  0  0  0  0  0  0  0  0  0
   11.1972   -2.0000    0.0000 O   0  0  0  0  0  0  0  0  0  0  0  0
    4.2690   -1.0000    0.0000 O   0  0  0  0  0  0  0  0  0  0  0  0
   11.1972    1.0000    0.0000 O   0  0  0  0  0  0  0  0  0  0  0  0
    2.5369    0.0000    0.0000 O   0  0  0  0  0  0  0  0  0  0  0  0
   12.9292   -0.0000    0.0000 O   0  0  0  0  0  0  0  0  0  0  0  0
    2.5369    3.0000    0.0000 O   0  0  0  0  0  0  0  0  0  0  0  0
   12.9292   -3.0000    0.0000 O   0  0  0  0  0  0  0  0  0  0  0  0
    6.8671    1.5000    0.0000 O   0  0  0  0  0  0  0  0  0  0  0  0
    8.5991   -1.5000    0.0000 O   0  0  0  0  0  0  0  0  0  0  0  0
    6.0010    0.0000    0.0000 N   0  0  0  0  0  0  0  0  0  0  0  0
    9.4651   -0.0000    0.0000 N   0  0  0  0  0  0  0  0  0  0  0  0
    5.1350    0.5000    0.0000 C   0  0  2  0  0  0  0  0  0  0  0  0
   10.3312   -0.5000    0.0000 C   0  0  2  0  0  0  0  0  0  0  0  0
    4.2690    0.0000    0.0000 C   0  0  2  0  0  0  0  0  0  0  0  0
   11.1972   -0.0000    0.0000 C   0  0  2  0  0  0  0  0  0  0  0  0
    3.4030    0.5000    0.0000 C   0  0  1  0  0  0  0  0  0  0  0  0
   12.0632   -0.5000    0.0000 C   0  0  1  0  0  0  0  0  0  0  0  0
    5.1350    1.5000    0.0000 C   0  0  2  0  0  0  0  0  0  0  0  0
   10.3312   -1.5000    0.0000 C   0  0  2  0  0  0  0  0  0  0  0  0
    3.4030    1.5000    0.0000 C   0  0  1  0  0  0  0  0  0  0  0  0
   12.0632   -1.5000    0.0000 C   0  0  1  0  0  0  0  0  0  0  0  0
    7.7331   -0.0000    0.0000 C   0  0  0  0  0  0  0  0  0  0  0  0
    6.8671    0.5000    0.0000 C   0  0  0  0  0  0  0  0  0  0  0  0
    8.5991   -0.5000    0.0000 C   0  0  0  0  0  0  0  0  0  0  0  0
    2.5369    2.0000    0.0000 C   0  0  0  0  0  0  0  0  0  0  0  0
   12.9292   -2.0000    0.0000 C   0  0  0  0  0  0  0  0  0  0  0  0
    8.2331    0.8660    0.0000 C   0  0  0  0  0  0  0  0  0  0  0  0
    7.2331   -0.8660    0.0000 C   0  0  0  0  0  0  0  0  0  0  0  0
    6.0010    3.0000    0.0000 C   0  0  0  0  0  0  0  0  0  0  0  0
    9.4651   -3.0000    0.0000 C   0  0  0  0  0  0  0  0  0  0  0  0
    6.8671    3.5000    0.0000 C   0  0  0  0  0  0  0  0  0  0  0  0
    8.5991   -3.5000    0.0000 C   0  0  0  0  0  0  0  0  0  0  0  0
    5.6720    0.8100    0.0000 H   0  0  0  0  0  0  0  0  0  0  0  0
   10.3312    0.1200    0.0000 H   0  0  0  0  0  0  0  0  0  0  0  0
    4.8059   -0.3100    0.0000 H   0  0  0  0  0  0  0  0  0  0  0  0
   11.7341    0.3100    0.0000 H   0  0  0  0  0  0  0  0  0  0  0  0
    3.4030   -0.1200    0.0000 H   0  0  0  0  0  0  0  0  0  0  0  0
   12.6002   -0.8100    0.0000 H   0  0  0  0  0  0  0  0  0  0  0  0
    5.1350    2.1200    0.0000 H   0  0  0  0  0  0  0  0  0  0  0  0
    9.7942   -1.1900    0.0000 H   0  0  0  0  0  0  0  0  0  0  0  0
    3.4030    2.1200    0.0000 H   0  0  0  0  0  0  0  0  0  0  0  0
   12.0632   -2.1200    0.0000 H   0  0  0  0  0  0  0  0  0  0  0  0
    6.0010   -0.6200    0.0000 H   0  0  0  0  0  0  0  0  0  0  0  0
    9.4651    0.6200    0.0000 H   0  0  0  0  0  0  0  0  0  0  0  0
    1.9264    2.1077    0.0000 H   0  0  0  0  0  0  0  0  0  0  0  0
    2.3249    1.4174    0.0000 H   0  0  0  0  0  0  0  0  0  0  0  0
   13.5398   -2.1077    0.0000 H   0  0  0  0  0  0  0  0  0  0  0  0
   13.1413   -1.4174    0.0000 H   0  0  0  0  0  0  0  0  0  0  0  0
    8.7700    0.5560    0.0000 H   0  0  0  0  0  0  0  0  0  0  0  0
    8.5431    1.4030    0.0000 H   0  0  0  0  0  0  0  0  0  0  0  0
    7.6962    1.1760    0.0000 H   0  0  0  0  0  0  0  0  0  0  0  0
    6.6962   -0.5560    0.0000 H   0  0  0  0  0  0  0  0  0  0  0  0
    6.9231   -1.4030    0.0000 H   0  0  0  0  0  0  0  0  0  0  0  0
    7.7700   -1.1760    0.0000 H   0  0  0  0  0  0  0  0  0  0  0  0
    3.7320   -1.3100    0.0000 H   0  0  0  0  0  0  0  0  0  0  0  0
   11.7341    1.3100    0.0000 H   0  0  0  0  0  0  0  0  0  0  0  0
    2.0000    0.3100    0.0000 H   0  0  0  0  0  0  0  0  0  0  0  0
   13.4662   -0.3100    0.0000 H   0  0  0  0  0  0  0  0  0  0  0  0
    5.7890    3.5826    0.0000 H   0  0  0  0  0  0  0  0  0  0  0  0
    5.3905    2.8923    0.0000 H   0  0  0  0  0  0  0  0  0  0  0  0
    9.6772   -3.5826    0.0000 H   0  0  0  0  0  0  0  0  0  0  0  0
   10.0757   -2.8923    0.0000 H   0  0  0  0  0  0  0  0  0  0  0  0
    2.0000    3.3100    0.0000 H   0  0  0  0  0  0  0  0  0  0  0  0
   13.4662   -3.3100    0.0000 H   0  0  0  0  0  0  0  0  0  0  0  0
    7.1771    2.9631    0.0000 H   0  0  0  0  0  0  0  0  0  0  0  0
    7.4040    3.8100    0.0000 H   0  0  0  0  0  0  0  0  0  0  0  0
    6.5571    4.0369    0.0000 H   0  0  0  0  0  0  0  0  0  0  0  0
    8.2891   -2.9631    0.0000 H   0  0  0  0  0  0  0  0  0  0  0  0
    8.0622   -3.8100    0.0000 H   0  0  0  0  0  0  0  0  0  0  0  0
    8.9091   -4.0369    0.0000 H   0  0  0  0  0  0  0  0  0  0  0  0
 21  1  1  1  0  0  0
  1 32  1  0  0  0  0
 22  2  1  1  0  0  0
  2 33  1  0  0  0  0
  3 21  1  0  0  0  0
  3 23  1  0  0  0  0
  4 22  1  0  0  0  0
  4 24  1  0  0  0  0
 17  5  1  1  0  0  0
  5 58  1  0  0  0  0
 18  6  1  1  0  0  0
  6 59  1  0  0  0  0
 19  7  1  6  0  0  0
  7 60  1  0  0  0  0
 20  8  1  6  0  0  0
  8 61  1  0  0  0  0
  9 28  1  0  0  0  0
  9 66  1  0  0  0  0
 10 29  1  0  0  0  0
 10 67  1  0  0  0  0
 11 26  2  0  0  0  0
 12 27  2  0  0  0  0
 15 13  1  6  0  0  0
 13 26  1  0  0  0  0
 13 46  1  0  0  0  0
 16 14  1  6  0  0  0
 14 27  1  0  0  0  0
 14 47  1  0  0  0  0
 15 17  1  0  0  0  0
 15 21  1  0  0  0  0
 15 36  1  0  0  0  0
 16 18  1  0  0  0  0
 16 22  1  0  0  0  0
 16 37  1  0  0  0  0
 17 19  1  0  0  0  0
 17 38  1  0  0  0  0
 18 20  1  0  0  0  0
 18 39  1  0  0  0  0
 19 23  1  0  0  0  0
 19 40  1  0  0  0  0
 20 24  1  0  0  0  0
 20 41  1  0  0  0  0
 21 42  1  0  0  0  0
 22 43  1  0  0  0  0
 23 28  1  1  0  0  0
 23 44  1  0  0  0  0
 24 29  1  1  0  0  0
 24 45  1  0  0  0  0
 25 26  1  0  0  0  0
 25 27  1  0  0  0  0
 25 30  1  0  0  0  0
 25 31  1  0  0  0  0
 28 48  1  0  0  0  0
 28 49  1  0  0  0  0
 29 50  1  0  0  0  0
 29 51  1  0  0  0  0
 30 52  1  0  0  0  0
 30 53  1  0  0  0  0
 30 54  1  0  0  0  0
 31 55  1  0  0  0  0
 31 56  1  0  0  0  0
 31 57  1  0  0  0  0
 32 34  1  0  0  0  0
 32 62  1  0  0  0  0
 32 63  1  0  0  0  0
 33 35  1  0  0  0  0
 33 64  1  0  0  0  0
 33 65  1  0  0  0  0
 34 68  1  0  0  0  0
 34 69  1  0  0  0  0
 34 70  1  0  0  0  0
 35 71  1  0  0  0  0
 35 72  1  0  0  0  0
 35 73  1  0  0  0  0
M  END
> <PUBCHEM_COMPOUND_CID>
25242981

> <PUBCHEM_COMPOUND_CANONICALIZED>
1

> <PUBCHEM_CACTVS_COMPLEXITY>
662

> <PUBCHEM_CACTVS_HBOND_ACCEPTOR>
12

> <PUBCHEM_CACTVS_HBOND_DONOR>
8

> <PUBCHEM_CACTVS_ROTATABLE_BOND>
10

> <PUBCHEM_CACTVS_SUBSKEYS>
AAADcfB7PABgAAAAAAAAAAAAAAAAAAAAAAAkSAAAAAAAAAAAAAAAHgQQCAAADjzlwAaCAALABggIAAEQEAAAAAAAABAAAIEIAAADEAoowAAHQAAHFgCzAAHwUAMAAAAAAAAAAAAAAAAAAAAAAAAAAAAAAA==

> <PUBCHEM_IUPAC_OPENEYE_NAME>
N,N'-bis[(2S,3R,4R,5S,6R)-2-ethylsulfanyl-4,5-dihydroxy-6-(hydroxymethyl)tetrahydropyran-3-yl]-2,2-dimethyl-propanediamide

> <PUBCHEM_IUPAC_CAS_NAME>
N,N'-bis[(2S,3R,4R,5S,6R)-2-(ethylthio)-4,5-dihydroxy-6-(hydroxymethyl)-3-oxanyl]-2,2-dimethylpropanediamide

> <PUBCHEM_IUPAC_NAME_MARKUP>
<I>N</I>,<I>N</I>&apos;-bis[(2<I>S</I>,3<I>R</I>,4<I>R</I>,5<I>S</I>,6<I>R</I>)-2-ethylsulfanyl-4,5-dihydroxy-6-(hydroxymethyl)oxan-3-yl]-2,2-dimethylpropanediamide

> <PUBCHEM_IUPAC_NAME>
N,N'-bis[(2S,3R,4R,5S,6R)-2-ethylsulfanyl-4,5-dihydroxy-6-(hydroxymethyl)oxan-3-yl]-2,2-dimethylpropanediamide

> <PUBCHEM_IUPAC_SYSTEMATIC_NAME>
N,N'-bis[(2S,3R,4R,5S,6R)-2-ethylsulfanyl-6-(hydroxymethyl)-4,5-bis(oxidanyl)oxan-3-yl]-2,2-dimethyl-propanediamide

> <PUBCHEM_IUPAC_TRADITIONAL_NAME>
N,N'-bis[(2S,3R,4R,5S,6R)-2-(ethylthio)-4,5-dihydroxy-6-methylol-tetrahydropyran-3-yl]-2,2-dimethyl-malonamide

> <PUBCHEM_IUPAC_INCHI>
InChI=1S/C21H38N2O10S2/c1-5-34-17-11(15(28)13(26)9(7-24)32-17)22-19(30)21(3,4)20(31)23-12-16(29)14(27)10(8-25)33-18(12)35-6-2/h9-18,24-29H,5-8H2,1-4H3,(H,22,30)(H,23,31)/t9-,10-,11-,12-,13-,14-,15-,16-,17+,18+/m1/s1

> <PUBCHEM_IUPAC_INCHIKEY>
MSASQYCCXJQPGS-YUSHAMJRSA-N

> <PUBCHEM_XLOGP3_AA>
0.2

> <PUBCHEM_EXACT_MASS>
542.19678776

> <PUBCHEM_MOLECULAR_FORMULA>
C21H38N2O10S2

> <PUBCHEM_MOLECULAR_WEIGHT>
542.7

> <PUBCHEM_OPENEYE_CAN_SMILES>
CCSC1C(C(C(C(O1)CO)O)O)NC(=O)C(C)(C)C(=O)NC2C(C(C(OC2SCC)CO)O)O

> <PUBCHEM_OPENEYE_ISO_SMILES>
CCS[C@H]1[C@@H]([C@H]([C@@H]([C@H](O1)CO)O)O)NC(=O)C(C)(C)C(=O)N[C@@H]2[C@H]([C@@H]([C@H](O[C@H]2SCC)CO)O)O

> <PUBCHEM_CACTVS_TPSA>
249

> <PUBCHEM_MONOISOTOPIC_WEIGHT>
542.19678776

> <PUBCHEM_TOTAL_CHARGE>
0

> <PUBCHEM_HEAVY_ATOM_COUNT>
35

> <PUBCHEM_ATOM_DEF_STEREO_COUNT>
10

> <PUBCHEM_ATOM_UDEF_STEREO_COUNT>
0

> <PUBCHEM_BOND_DEF_STEREO_COUNT>
0

> <PUBCHEM_BOND_UDEF_STEREO_COUNT>
0

> <PUBCHEM_ISOTOPIC_ATOM_COUNT>
0

> <PUBCHEM_COMPONENT_COUNT>
1

> <PUBCHEM_CACTVS_TAUTO_COUNT>
-1

> <PUBCHEM_COORDINATE_TYPE>
1
5
255

> <PUBCHEM_BONDANNOTATIONS>
21  1  5
15  13  6
16  14  6
22  2  5
23  28  5
24  29  5
17  5  5
18  6  5
19  7  6
20  8  6

$$$$
