 
  -OEChem-10192103352D

 93 97  0     1  0  0  0  0  0999 V2000
   13.5711   -0.4061    0.0000 P   0  0  0  0  0  0  0  0  0  0  0  0
   11.0365   -2.1706    0.0000 O   0  0  0  0  0  0  0  0  0  0  0  0
    8.4985   -1.6662    0.0000 O   0  0  0  0  0  0  0  0  0  0  0  0
    9.7803    0.0917    0.0000 O   0  0  0  0  0  0  0  0  0  0  0  0
   12.7611   -0.9925    0.0000 O   0  0  0  0  0  0  0  0  0  0  0  0
    8.5015    0.0659    0.0000 O   0  0  0  0  0  0  0  0  0  0  0  0
   11.4285    0.6241    0.0000 O   0  0  0  0  0  0  0  0  0  0  0  0
   14.3811    0.1803    0.0000 O   0  0  0  0  0  0  0  0  0  0  0  0
   14.1575   -1.2162    0.0000 O   0  0  0  0  0  0  0  0  0  0  0  0
   12.9847    0.4039    0.0000 O   0  0  0  0  0  0  0  0  0  0  0  0
    3.5045    1.8066    0.0000 O   0  0  0  0  0  0  0  0  0  0  0  0
   11.5399    5.9144    0.0000 O   0  0  0  0  0  0  0  0  0  0  0  0
    2.5015    0.0762    0.0000 O   0  0  0  0  0  0  0  0  0  0  0  0
    9.5843    6.3336    0.0000 O   0  0  0  0  0  0  0  0  0  0  0  0
    9.7742   -3.4285    0.0000 N   0  0  0  0  0  0  0  0  0  0  0  0
    9.7742   -5.0379    0.0000 N   0  0  0  0  0  0  0  0  0  0  0  0
    7.9620   -3.2332    0.0000 N   0  0  0  0  0  0  0  0  0  0  0  0
    6.4985   -1.6627    0.0000 N   0  0  0  0  0  0  0  0  0  0  0  0
    9.1656    1.9948    0.0000 N   0  0  0  0  0  0  0  0  0  0  0  0
    7.0959   -4.7332    0.0000 N   0  0  0  0  0  0  0  0  0  0  0  0
    7.9620   -6.2332    0.0000 N   0  0  0  0  0  0  0  0  0  0  0  0
    9.4985   -1.6679    0.0000 C   0  0  2  0  0  0  0  0  0  0  0  0
   10.0877   -0.8599    0.0000 C   0  0  1  0  0  0  0  0  0  0  0  0
   10.0849   -2.4780    0.0000 C   0  0  1  0  0  0  0  0  0  0  0  0
   11.0382   -1.1706    0.0000 C   0  0  1  0  0  0  0  0  0  0  0  0
   11.8482   -0.5842    0.0000 C   0  0  0  0  0  0  0  0  0  0  0  0
    8.8280   -3.7332    0.0000 C   0  0  0  0  0  0  0  0  0  0  0  0
   10.3578   -4.2332    0.0000 C   0  0  0  0  0  0  0  0  0  0  0  0
    8.0000   -0.7993    0.0000 C   0  0  0  0  0  0  0  0  0  0  0  0
   10.4507    0.8337    0.0000 C   0  0  0  0  0  0  0  0  0  0  0  0
    8.8280   -4.7332    0.0000 C   0  0  0  0  0  0  0  0  0  0  0  0
    7.0000   -0.7976    0.0000 C   0  0  2  0  0  0  0  0  0  0  0  0
   10.1433    1.7852    0.0000 C   0  0  2  0  0  0  0  0  0  0  0  0
    6.5015    0.0693    0.0000 C   0  0  0  0  0  0  0  0  0  0  0  0
   10.8138    2.5272    0.0000 C   0  0  0  0  0  0  0  0  0  0  0  0
    7.9620   -5.2332    0.0000 C   0  0  0  0  0  0  0  0  0  0  0  0
    7.0959   -3.7332    0.0000 C   0  0  0  0  0  0  0  0  0  0  0  0
    5.5015    0.0711    0.0000 C   0  0  0  0  0  0  0  0  0  0  0  0
   10.5064    3.4788    0.0000 C   0  0  0  0  0  0  0  0  0  0  0  0
    5.0030    0.9379    0.0000 C   0  0  0  0  0  0  0  0  0  0  0  0
   11.1768    4.2208    0.0000 C   0  0  0  0  0  0  0  0  0  0  0  0
    5.0000   -0.7941    0.0000 C   0  0  0  0  0  0  0  0  0  0  0  0
    9.5286    3.6884    0.0000 C   0  0  0  0  0  0  0  0  0  0  0  0
    4.0030    0.9397    0.0000 C   0  0  0  0  0  0  0  0  0  0  0  0
   10.8694    5.1724    0.0000 C   0  0  0  0  0  0  0  0  0  0  0  0
    4.0000   -0.7924    0.0000 C   0  0  0  0  0  0  0  0  0  0  0  0
    9.2212    4.6400    0.0000 C   0  0  0  0  0  0  0  0  0  0  0  0
    3.5015    0.0745    0.0000 C   0  0  0  0  0  0  0  0  0  0  0  0
    9.8916    5.3820    0.0000 C   0  0  0  0  0  0  0  0  0  0  0  0
    2.5045    1.8083    0.0000 C   0  0  0  0  0  0  0  0  0  0  0  0
   12.5176    5.7048    0.0000 C   0  0  0  0  0  0  0  0  0  0  0  0
    2.0000   -0.7889    0.0000 C   0  0  0  0  0  0  0  0  0  0  0  0
    8.6065    6.5432    0.0000 C   0  0  0  0  0  0  0  0  0  0  0  0
    9.2161   -2.2198    0.0000 H   0  0  0  0  0  0  0  0  0  0  0  0
    9.4755   -0.7619    0.0000 H   0  0  0  0  0  0  0  0  0  0  0  0
    9.4723   -2.5739    0.0000 H   0  0  0  0  0  0  0  0  0  0  0  0
   11.5901   -1.4530    0.0000 H   0  0  0  0  0  0  0  0  0  0  0  0
   12.1958   -0.0708    0.0000 H   0  0  0  0  0  0  0  0  0  0  0  0
   11.4030   -0.1527    0.0000 H   0  0  0  0  0  0  0  0  0  0  0  0
   10.9778   -4.2332    0.0000 H   0  0  0  0  0  0  0  0  0  0  0  0
    6.3800   -0.7965    0.0000 H   0  0  0  0  0  0  0  0  0  0  0  0
    9.9528    2.3752    0.0000 H   0  0  0  0  0  0  0  0  0  0  0  0
    7.0845    0.2804    0.0000 H   0  0  0  0  0  0  0  0  0  0  0  0
    6.3949    0.6801    0.0000 H   0  0  0  0  0  0  0  0  0  0  0  0
   11.1946    2.0380    0.0000 H   0  0  0  0  0  0  0  0  0  0  0  0
   11.3617    2.8174    0.0000 H   0  0  0  0  0  0  0  0  0  0  0  0
    5.8785   -1.6616    0.0000 H   0  0  0  0  0  0  0  0  0  0  0  0
    6.8076   -2.2002    0.0000 H   0  0  0  0  0  0  0  0  0  0  0  0
    8.9750    2.5848    0.0000 H   0  0  0  0  0  0  0  0  0  0  0  0
    8.7499    1.5348    0.0000 H   0  0  0  0  0  0  0  0  0  0  0  0
    6.5590   -3.4232    0.0000 H   0  0  0  0  0  0  0  0  0  0  0  0
    7.4250   -6.5432    0.0000 H   0  0  0  0  0  0  0  0  0  0  0  0
    8.4989   -6.5432    0.0000 H   0  0  0  0  0  0  0  0  0  0  0  0
   14.9471   -0.0729    0.0000 H   0  0  0  0  0  0  0  0  0  0  0  0
   13.9043   -1.7821    0.0000 H   0  0  0  0  0  0  0  0  0  0  0  0
    5.3139    1.4743    0.0000 H   0  0  0  0  0  0  0  0  0  0  0  0
   11.7830    4.0909    0.0000 H   0  0  0  0  0  0  0  0  0  0  0  0
    5.3091   -1.3316    0.0000 H   0  0  0  0  0  0  0  0  0  0  0  0
    9.1130    3.2284    0.0000 H   0  0  0  0  0  0  0  0  0  0  0  0
    3.6891   -1.3288    0.0000 H   0  0  0  0  0  0  0  0  0  0  0  0
    8.6150    4.7700    0.0000 H   0  0  0  0  0  0  0  0  0  0  0  0
    2.5056    2.4283    0.0000 H   0  0  0  0  0  0  0  0  0  0  0  0
    1.8845    1.8094    0.0000 H   0  0  0  0  0  0  0  0  0  0  0  0
    2.5034    1.1883    0.0000 H   0  0  0  0  0  0  0  0  0  0  0  0
   12.3877    5.0986    0.0000 H   0  0  0  0  0  0  0  0  0  0  0  0
   13.1239    5.5748    0.0000 H   0  0  0  0  0  0  0  0  0  0  0  0
   12.6476    6.3110    0.0000 H   0  0  0  0  0  0  0  0  0  0  0  0
    1.4636   -0.4780    0.0000 H   0  0  0  0  0  0  0  0  0  0  0  0
    1.6891   -1.3253    0.0000 H   0  0  0  0  0  0  0  0  0  0  0  0
    2.5364   -1.0998    0.0000 H   0  0  0  0  0  0  0  0  0  0  0  0
    8.7364    7.1494    0.0000 H   0  0  0  0  0  0  0  0  0  0  0  0
    8.0003    6.6732    0.0000 H   0  0  0  0  0  0  0  0  0  0  0  0
    8.4765    5.9370    0.0000 H   0  0  0  0  0  0  0  0  0  0  0  0
  1  5  1  0  0  0  0
  1  8  1  0  0  0  0
  1  9  1  0  0  0  0
  1 10  2  0  0  0  0
  2 24  1  0  0  0  0
  2 25  1  0  0  0  0
 22  3  1  6  0  0  0
  3 29  1  0  0  0  0
 23  4  1  6  0  0  0
  4 30  1  0  0  0  0
  5 26  1  0  0  0  0
  6 29  2  0  0  0  0
  7 30  2  0  0  0  0
  8 74  1  0  0  0  0
  9 75  1  0  0  0  0
 11 44  1  0  0  0  0
 11 50  1  0  0  0  0
 12 45  1  0  0  0  0
 12 51  1  0  0  0  0
 13 48  1  0  0  0  0
 13 52  1  0  0  0  0
 14 49  1  0  0  0  0
 14 53  1  0  0  0  0
 24 15  1  1  0  0  0
 15 27  1  0  0  0  0
 15 28  1  0  0  0  0
 16 28  2  0  0  0  0
 16 31  1  0  0  0  0
 17 27  2  0  0  0  0
 17 37  1  0  0  0  0
 32 18  1  1  0  0  0
 18 67  1  0  0  0  0
 18 68  1  0  0  0  0
 33 19  1  1  0  0  0
 19 69  1  0  0  0  0
 19 70  1  0  0  0  0
 20 36  1  0  0  0  0
 20 37  2  0  0  0  0
 21 36  1  0  0  0  0
 21 72  1  0  0  0  0
 21 73  1  0  0  0  0
 22 23  1  0  0  0  0
 22 24  1  0  0  0  0
 22 54  1  0  0  0  0
 23 25  1  0  0  0  0
 23 55  1  0  0  0  0
 24 56  1  0  0  0  0
 25 26  1  1  0  0  0
 25 57  1  0  0  0  0
 26 58  1  0  0  0  0
 26 59  1  0  0  0  0
 27 31  1  0  0  0  0
 28 60  1  0  0  0  0
 29 32  1  0  0  0  0
 30 33  1  0  0  0  0
 31 36  2  0  0  0  0
 32 34  1  0  0  0  0
 32 61  1  0  0  0  0
 33 35  1  0  0  0  0
 33 62  1  0  0  0  0
 34 38  1  0  0  0  0
 34 63  1  0  0  0  0
 34 64  1  0  0  0  0
 35 39  1  0  0  0  0
 35 65  1  0  0  0  0
 35 66  1  0  0  0  0
 37 71  1  0  0  0  0
 38 40  2  0  0  0  0
 38 42  1  0  0  0  0
 39 41  2  0  0  0  0
 39 43  1  0  0  0  0
 40 44  1  0  0  0  0
 40 76  1  0  0  0  0
 41 45  1  0  0  0  0
 41 77  1  0  0  0  0
 42 46  2  0  0  0  0
 42 78  1  0  0  0  0
 43 47  2  0  0  0  0
 43 79  1  0  0  0  0
 44 48  2  0  0  0  0
 45 49  2  0  0  0  0
 46 48  1  0  0  0  0
 46 80  1  0  0  0  0
 47 49  1  0  0  0  0
 47 81  1  0  0  0  0
 50 82  1  0  0  0  0
 50 83  1  0  0  0  0
 50 84  1  0  0  0  0
 51 85  1  0  0  0  0
 51 86  1  0  0  0  0
 51 87  1  0  0  0  0
 52 88  1  0  0  0  0
 52 89  1  0  0  0  0
 52 90  1  0  0  0  0
 53 91  1  0  0  0  0
 53 92  1  0  0  0  0
 53 93  1  0  0  0  0
M  END
> <PUBCHEM_COMPOUND_CID>
101962988

> <PUBCHEM_COMPOUND_CANONICALIZED>
1

> <PUBCHEM_CACTVS_COMPLEXITY>
1260

> <PUBCHEM_CACTVS_HBOND_ACCEPTOR>
19

> <PUBCHEM_CACTVS_HBOND_DONOR>
5

> <PUBCHEM_CACTVS_ROTATABLE_BOND>
18

> <PUBCHEM_CACTVS_SUBSKEYS>
AAADcfB/vAIAAAAAAAAAAAAAAAAAAWJAAAA8YIAAAAAAAFgB/AAAHgAQCCAADDzhnwY3/r9MFRCoQybzbICCiC0xMKAJ2KGu3JiPbjLE+VufNCov0BPaqCf4+LOOIAABAAAAQABAAAIAAACAAAAAAAAAAA==

> <PUBCHEM_IUPAC_OPENEYE_NAME>
[(2R,3R,4R,5R)-4-[(2S)-2-amino-3-(3,4-dimethoxyphenyl)propanoyl]oxy-5-(6-aminopurin-9-yl)-2-(phosphonooxymethyl)tetrahydrofuran-3-yl] (2S)-2-amino-3-(3,4-dimethoxyphenyl)propanoate

> <PUBCHEM_IUPAC_CAS_NAME>
(2S)-2-amino-3-(3,4-dimethoxyphenyl)propanoic acid [(2R,3R,4R,5R)-4-[(2S)-2-amino-3-(3,4-dimethoxyphenyl)-1-oxopropoxy]-5-(6-aminopurin-9-yl)-2-(phosphonooxymethyl)-3-oxolanyl] ester

> <PUBCHEM_IUPAC_NAME_MARKUP>
[(2<I>R</I>,3<I>R</I>,4<I>R</I>,5<I>R</I>)-4-[(2<I>S</I>)-2-amino-3-(3,4-dimethoxyphenyl)propanoyl]oxy-5-(6-aminopurin-9-yl)-2-(phosphonooxymethyl)oxolan-3-yl] (2<I>S</I>)-2-amino-3-(3,4-dimethoxyphenyl)propanoate

> <PUBCHEM_IUPAC_NAME>
[(2R,3R,4R,5R)-4-[(2S)-2-amino-3-(3,4-dimethoxyphenyl)propanoyl]oxy-5-(6-aminopurin-9-yl)-2-(phosphonooxymethyl)oxolan-3-yl] (2S)-2-amino-3-(3,4-dimethoxyphenyl)propanoate

> <PUBCHEM_IUPAC_SYSTEMATIC_NAME>
[(2R,3R,4R,5R)-5-(6-aminopurin-9-yl)-4-[(2S)-2-azanyl-3-(3,4-dimethoxyphenyl)propanoyl]oxy-2-(phosphonooxymethyl)oxolan-3-yl] (2S)-2-azanyl-3-(3,4-dimethoxyphenyl)propanoate

> <PUBCHEM_IUPAC_TRADITIONAL_NAME>
(2S)-2-amino-3-(3,4-dimethoxyphenyl)propionic acid [(2R,3R,4R,5R)-5-adenin-9-yl-4-[(2S)-2-amino-3-(3,4-dimethoxyphenyl)propanoyl]oxy-2-(phosphonooxymethyl)tetrahydrofuran-3-yl] ester

> <PUBCHEM_IUPAC_INCHI>
InChI=1S/C32H40N7O13P/c1-45-20-7-5-16(11-22(20)47-3)9-18(33)31(40)51-26-24(13-49-53(42,43)44)50-30(39-15-38-25-28(35)36-14-37-29(25)39)27(26)52-32(41)19(34)10-17-6-8-21(46-2)23(12-17)48-4/h5-8,11-12,14-15,18-19,24,26-27,30H,9-10,13,33-34H2,1-4H3,(H2,35,36,37)(H2,42,43,44)/t18-,19-,24+,26+,27+,30+/m0/s1

> <PUBCHEM_IUPAC_INCHIKEY>
YGODSYLEKYULAS-QPLUJXEZSA-N

> <PUBCHEM_XLOGP3>
-2.6

> <PUBCHEM_EXACT_MASS>
761.24217135

> <PUBCHEM_MOLECULAR_FORMULA>
C32H40N7O13P

> <PUBCHEM_MOLECULAR_WEIGHT>
761.7

> <PUBCHEM_OPENEYE_CAN_SMILES>
COC1=C(C=C(C=C1)CC(C(=O)OC2C(OC(C2OC(=O)C(CC3=CC(=C(C=C3)OC)OC)N)N4C=NC5=C(N=CN=C54)N)COP(=O)(O)O)N)OC

> <PUBCHEM_OPENEYE_ISO_SMILES>
COC1=C(C=C(C=C1)C[C@@H](C(=O)O[C@@H]2[C@H](O[C@H]([C@@H]2OC(=O)[C@H](CC3=CC(=C(C=C3)OC)OC)N)N4C=NC5=C(N=CN=C54)N)COP(=O)(O)O)N)OC

> <PUBCHEM_CACTVS_TPSA>
287

> <PUBCHEM_MONOISOTOPIC_WEIGHT>
761.24217135

> <PUBCHEM_TOTAL_CHARGE>
0

> <PUBCHEM_HEAVY_ATOM_COUNT>
53

> <PUBCHEM_ATOM_DEF_STEREO_COUNT>
6

> <PUBCHEM_ATOM_UDEF_STEREO_COUNT>
0

> <PUBCHEM_BOND_DEF_STEREO_COUNT>
0

> <PUBCHEM_BOND_UDEF_STEREO_COUNT>
0

> <PUBCHEM_ISOTOPIC_ATOM_COUNT>
0

> <PUBCHEM_COMPONENT_COUNT>
1

> <PUBCHEM_CACTVS_TAUTO_COUNT>
-1

> <PUBCHEM_COORDINATE_TYPE>
1
5
255

> <PUBCHEM_BONDANNOTATIONS>
24  15  5
15  27  8
15  28  8
16  28  8
16  31  8
17  27  8
17  37  8
32  18  5
33  19  5
20  36  8
20  37  8
25  26  5
27  31  8
22  3  6
31  36  8
38  40  8
38  42  8
39  41  8
39  43  8
23  4  6
40  44  8
41  45  8
42  46  8
43  47  8
44  48  8
45  49  8
46  48  8
47  49  8

$$$$
