 
  -OEChem-10192103432D

 24 24  0     1  0  0  0  0  0999 V2000
    5.8660   -1.0675    0.0000 O   0  0  0  0  0  0  0  0  0  0  0  0
    4.3660    1.5306    0.0000 O   0  0  0  0  0  0  0  0  0  0  0  0
    4.8661   -2.0675    0.0000 O   0  0  0  0  0  0  0  0  0  0  0  0
    5.8660    0.6645    0.0000 O   0  0  0  0  0  0  0  0  0  0  0  0
    3.5000   -0.7015    0.0000 C   0  0  3  0  0  0  0  0  0  0  0  0
    4.3660   -0.2015    0.0000 C   0  0  0  0  0  0  0  0  0  0  0  0
    3.5000    0.2985    0.0000 C   0  0  0  0  0  0  0  0  0  0  0  0
    2.5000   -0.7015    0.0000 C   0  0  0  0  0  0  0  0  0  0  0  0
    3.5000   -1.7015    0.0000 C   0  0  0  0  0  0  0  0  0  0  0  0
    4.8660   -1.0675    0.0000 C   0  0  0  0  0  0  0  0  0  0  0  0
    4.8660    0.6645    0.0000 C   0  0  0  0  0  0  0  0  0  0  0  0
    2.0000   -1.5675    0.0000 C   0  0  0  0  0  0  0  0  0  0  0  0
    3.7120    0.8811    0.0000 H   0  0  0  0  0  0  0  0  0  0  0  0
    2.8894    0.4062    0.0000 H   0  0  0  0  0  0  0  0  0  0  0  0
    2.6077   -0.0909    0.0000 H   0  0  0  0  0  0  0  0  0  0  0  0
    1.9174   -0.4894    0.0000 H   0  0  0  0  0  0  0  0  0  0  0  0
    2.8800   -1.7015    0.0000 H   0  0  0  0  0  0  0  0  0  0  0  0
    3.5000   -2.3215    0.0000 H   0  0  0  0  0  0  0  0  0  0  0  0
    4.1200   -1.7015    0.0000 H   0  0  0  0  0  0  0  0  0  0  0  0
    1.4631   -1.2575    0.0000 H   0  0  0  0  0  0  0  0  0  0  0  0
    1.6900   -2.1044    0.0000 H   0  0  0  0  0  0  0  0  0  0  0  0
    2.5369   -1.8775    0.0000 H   0  0  0  0  0  0  0  0  0  0  0  0
    6.1760   -1.6044    0.0000 H   0  0  0  0  0  0  0  0  0  0  0  0
    4.6760    2.0675    0.0000 H   0  0  0  0  0  0  0  0  0  0  0  0
  1 10  1  0  0  0  0
  1 23  1  0  0  0  0
  2 11  1  0  0  0  0
  2 24  1  0  0  0  0
  3 10  2  0  0  0  0
  4 11  2  0  0  0  0
  5  6  1  0  0  0  0
  5  7  1  0  0  0  0
  5  8  1  0  0  0  0
  5  9  1  0  0  0  0
  6  7  1  0  0  0  0
  6 10  1  0  0  0  0
  6 11  1  0  0  0  0
  7 13  1  0  0  0  0
  7 14  1  0  0  0  0
  8 12  1  0  0  0  0
  8 15  1  0  0  0  0
  8 16  1  0  0  0  0
  9 17  1  0  0  0  0
  9 18  1  0  0  0  0
  9 19  1  0  0  0  0
 12 20  1  0  0  0  0
 12 21  1  0  0  0  0
 12 22  1  0  0  0  0
M  END
> <PUBCHEM_COMPOUND_CID>
130925634

> <PUBCHEM_COMPOUND_CANONICALIZED>
1

> <PUBCHEM_CACTVS_COMPLEXITY>
231

> <PUBCHEM_CACTVS_HBOND_ACCEPTOR>
4

> <PUBCHEM_CACTVS_HBOND_DONOR>
2

> <PUBCHEM_CACTVS_ROTATABLE_BOND>
3

> <PUBCHEM_CACTVS_SUBSKEYS>
AAADccBwOAAAAAAAAAAAAAAAGAAAAAAAAAAAAAAAAAAAAAAAAAAAGgAACAAADgCAgAACCAAAAgAIAACQCAAAAAAAAAAAAAEAAAAAABYIAAAAQAAFIAAAAAGISAAPgAAAAAAAAAAAAAAAAAAAAAAAAAAAAA==

> <PUBCHEM_IUPAC_OPENEYE_NAME>
2-ethyl-2-methyl-cyclopropane-1,1-dicarboxylic acid

> <PUBCHEM_IUPAC_CAS_NAME>
2-ethyl-2-methylcyclopropane-1,1-dicarboxylic acid

> <PUBCHEM_IUPAC_NAME_MARKUP>
2-ethyl-2-methylcyclopropane-1,1-dicarboxylic acid

> <PUBCHEM_IUPAC_NAME>
2-ethyl-2-methylcyclopropane-1,1-dicarboxylic acid

> <PUBCHEM_IUPAC_SYSTEMATIC_NAME>
2-ethyl-2-methyl-cyclopropane-1,1-dicarboxylic acid

> <PUBCHEM_IUPAC_TRADITIONAL_NAME>
2-ethyl-2-methyl-cyclopropane-1,1-dicarboxylic acid

> <PUBCHEM_IUPAC_INCHI>
InChI=1S/C8H12O4/c1-3-7(2)4-8(7,5(9)10)6(11)12/h3-4H2,1-2H3,(H,9,10)(H,11,12)

> <PUBCHEM_IUPAC_INCHIKEY>
TYOQYSOLKHQICL-UHFFFAOYSA-N

> <PUBCHEM_XLOGP3_AA>
1.2

> <PUBCHEM_EXACT_MASS>
172.07355886

> <PUBCHEM_MOLECULAR_FORMULA>
C8H12O4

> <PUBCHEM_MOLECULAR_WEIGHT>
172.18

> <PUBCHEM_OPENEYE_CAN_SMILES>
CCC1(CC1(C(=O)O)C(=O)O)C

> <PUBCHEM_OPENEYE_ISO_SMILES>
CCC1(CC1(C(=O)O)C(=O)O)C

> <PUBCHEM_CACTVS_TPSA>
74.6

> <PUBCHEM_MONOISOTOPIC_WEIGHT>
172.07355886

> <PUBCHEM_TOTAL_CHARGE>
0

> <PUBCHEM_HEAVY_ATOM_COUNT>
12

> <PUBCHEM_ATOM_DEF_STEREO_COUNT>
0

> <PUBCHEM_ATOM_UDEF_STEREO_COUNT>
1

> <PUBCHEM_BOND_DEF_STEREO_COUNT>
0

> <PUBCHEM_BOND_UDEF_STEREO_COUNT>
0

> <PUBCHEM_ISOTOPIC_ATOM_COUNT>
0

> <PUBCHEM_COMPONENT_COUNT>
1

> <PUBCHEM_CACTVS_TAUTO_COUNT>
-1

> <PUBCHEM_COORDINATE_TYPE>
1
5
255

> <PUBCHEM_BONDANNOTATIONS>
5  9  3

$$$$
