 
  -OEChem-10192104142D

 67 69  0     1  0  0  0  0  0999 V2000
    5.1350   -0.9050    0.0000 O   0  0  0  0  0  0  0  0  0  0  0  0
    6.8671   -0.9050    0.0000 O   0  0  0  0  0  0  0  0  0  0  0  0
    5.1350   -3.9050    0.0000 O   0  0  0  0  0  0  0  0  0  0  0  0
    3.4030   -2.9050    0.0000 O   0  0  0  0  0  0  0  0  0  0  0  0
    6.8671   -2.9050    0.0000 O   0  0  0  0  0  0  0  0  0  0  0  0
    6.0010    0.5950    0.0000 O   0  0  0  0  0  0  0  0  0  0  0  0
    2.5369   -1.4050    0.0000 O   0  0  0  0  0  0  0  0  0  0  0  0
   10.3312    2.0950    0.0000 O   0  0  0  0  0  0  0  0  0  0  0  0
    6.0010    3.5950    0.0000 O   0  0  0  0  0  0  0  0  0  0  0  0
    9.4651    0.5950    0.0000 O   0  0  0  0  0  0  0  0  0  0  0  0
    7.7331    3.5950    0.0000 O   0  0  0  0  0  0  0  0  0  0  0  0
   13.7953   -0.9050    0.0000 O   0  0  0  0  0  0  0  0  0  0  0  0
   15.5273    0.0950    0.0000 O   0  0  0  0  0  0  0  0  0  0  0  0
    5.1350   -2.9050    0.0000 C   0  0  1  0  0  0  0  0  0  0  0  0
    4.2690   -2.4050    0.0000 C   0  0  1  0  0  0  0  0  0  0  0  0
    6.0010   -2.4050    0.0000 C   0  0  2  0  0  0  0  0  0  0  0  0
    4.2690   -1.4050    0.0000 C   0  0  1  0  0  0  0  0  0  0  0  0
    6.0010   -1.4050    0.0000 C   0  0  1  0  0  0  0  0  0  0  0  0
    3.4030   -0.9050    0.0000 C   0  0  0  0  0  0  0  0  0  0  0  0
    6.8671    0.0950    0.0000 C   0  0  2  0  0  0  0  0  0  0  0  0
    7.7331    1.5950    0.0000 C   0  0  1  0  0  0  0  0  0  0  0  0
    7.7331    0.5950    0.0000 C   0  0  0  0  0  0  0  0  0  0  0  0
    6.8671    2.0950    0.0000 C   0  0  0  0  0  0  0  0  0  0  0  0
    8.5991    2.0950    0.0000 C   0  0  0  0  0  0  0  0  0  0  0  0
    8.5991    0.0950    0.0000 C   0  0  0  0  0  0  0  0  0  0  0  0
    6.0010    1.5950    0.0000 C   0  0  0  0  0  0  0  0  0  0  0  0
    9.4651    1.5950    0.0000 C   0  0  0  0  0  0  0  0  0  0  0  0
    6.8671    3.0950    0.0000 C   0  0  0  0  0  0  0  0  0  0  0  0
    8.5991   -0.9050    0.0000 C   0  0  0  0  0  0  0  0  0  0  0  0
   11.1972    1.5950    0.0000 C   0  0  0  0  0  0  0  0  0  0  0  0
   12.0632    2.0950    0.0000 C   0  0  0  0  0  0  0  0  0  0  0  0
   12.9292    1.5950    0.0000 C   0  0  0  0  0  0  0  0  0  0  0  0
   12.9292    0.5950    0.0000 C   0  0  0  0  0  0  0  0  0  0  0  0
   13.7953    2.0950    0.0000 C   0  0  0  0  0  0  0  0  0  0  0  0
   13.7953    0.0950    0.0000 C   0  0  0  0  0  0  0  0  0  0  0  0
   14.6613    1.5950    0.0000 C   0  0  0  0  0  0  0  0  0  0  0  0
   14.6613    0.5950    0.0000 C   0  0  0  0  0  0  0  0  0  0  0  0
    4.5981   -3.2150    0.0000 H   0  0  0  0  0  0  0  0  0  0  0  0
    4.2690   -3.0250    0.0000 H   0  0  0  0  0  0  0  0  0  0  0  0
    6.0010   -3.0250    0.0000 H   0  0  0  0  0  0  0  0  0  0  0  0
    4.2690   -0.7850    0.0000 H   0  0  0  0  0  0  0  0  0  0  0  0
    6.0010   -0.7850    0.0000 H   0  0  0  0  0  0  0  0  0  0  0  0
    3.8015   -0.4301    0.0000 H   0  0  0  0  0  0  0  0  0  0  0  0
    3.0044   -0.4301    0.0000 H   0  0  0  0  0  0  0  0  0  0  0  0
    7.4040   -0.2150    0.0000 H   0  0  0  0  0  0  0  0  0  0  0  0
    8.2700    1.2850    0.0000 H   0  0  0  0  0  0  0  0  0  0  0  0
    4.5981   -4.2150    0.0000 H   0  0  0  0  0  0  0  0  0  0  0  0
    3.4030   -3.5250    0.0000 H   0  0  0  0  0  0  0  0  0  0  0  0
    6.8671   -3.5250    0.0000 H   0  0  0  0  0  0  0  0  0  0  0  0
    8.9976    2.5700    0.0000 H   0  0  0  0  0  0  0  0  0  0  0  0
    8.2006    2.5700    0.0000 H   0  0  0  0  0  0  0  0  0  0  0  0
    9.1360    0.4050    0.0000 H   0  0  0  0  0  0  0  0  0  0  0  0
    5.4641    1.9050    0.0000 H   0  0  0  0  0  0  0  0  0  0  0  0
    2.0000   -1.0950    0.0000 H   0  0  0  0  0  0  0  0  0  0  0  0
    7.9791   -0.9050    0.0000 H   0  0  0  0  0  0  0  0  0  0  0  0
    8.5991   -1.5250    0.0000 H   0  0  0  0  0  0  0  0  0  0  0  0
    9.2191   -0.9050    0.0000 H   0  0  0  0  0  0  0  0  0  0  0  0
   10.7987    1.1200    0.0000 H   0  0  0  0  0  0  0  0  0  0  0  0
   11.5957    1.1200    0.0000 H   0  0  0  0  0  0  0  0  0  0  0  0
   12.4617    2.5700    0.0000 H   0  0  0  0  0  0  0  0  0  0  0  0
   11.6647    2.5700    0.0000 H   0  0  0  0  0  0  0  0  0  0  0  0
    6.0010    4.2150    0.0000 H   0  0  0  0  0  0  0  0  0  0  0  0
   12.3923    0.2850    0.0000 H   0  0  0  0  0  0  0  0  0  0  0  0
   13.7953    2.7150    0.0000 H   0  0  0  0  0  0  0  0  0  0  0  0
   15.1982    1.9050    0.0000 H   0  0  0  0  0  0  0  0  0  0  0  0
   14.3322   -1.2150    0.0000 H   0  0  0  0  0  0  0  0  0  0  0  0
   16.0643    0.4050    0.0000 H   0  0  0  0  0  0  0  0  0  0  0  0
  1 17  1  0  0  0  0
  1 18  1  0  0  0  0
 18  2  1  1  0  0  0
 20  2  1  6  0  0  0
 14  3  1  1  0  0  0
  3 47  1  0  0  0  0
 15  4  1  6  0  0  0
  4 48  1  0  0  0  0
 16  5  1  6  0  0  0
  5 49  1  0  0  0  0
  6 20  1  0  0  0  0
  6 26  1  0  0  0  0
  7 19  1  0  0  0  0
  7 54  1  0  0  0  0
  8 27  1  0  0  0  0
  8 30  1  0  0  0  0
  9 28  1  0  0  0  0
  9 62  1  0  0  0  0
 10 27  2  0  0  0  0
 11 28  2  0  0  0  0
 12 35  1  0  0  0  0
 12 66  1  0  0  0  0
 13 37  1  0  0  0  0
 13 67  1  0  0  0  0
 14 15  1  0  0  0  0
 14 16  1  0  0  0  0
 14 38  1  0  0  0  0
 15 17  1  0  0  0  0
 15 39  1  0  0  0  0
 16 18  1  0  0  0  0
 16 40  1  0  0  0  0
 17 19  1  1  0  0  0
 17 41  1  0  0  0  0
 18 42  1  0  0  0  0
 19 43  1  0  0  0  0
 19 44  1  0  0  0  0
 20 22  1  0  0  0  0
 20 45  1  0  0  0  0
 21 22  1  0  0  0  0
 21 23  1  0  0  0  0
 21 24  1  1  0  0  0
 21 46  1  0  0  0  0
 22 25  2  3  0  0  0
 23 26  2  0  0  0  0
 23 28  1  0  0  0  0
 24 27  1  0  0  0  0
 24 50  1  0  0  0  0
 24 51  1  0  0  0  0
 25 29  1  0  0  0  0
 25 52  1  0  0  0  0
 26 53  1  0  0  0  0
 29 55  1  0  0  0  0
 29 56  1  0  0  0  0
 29 57  1  0  0  0  0
 30 31  1  0  0  0  0
 30 58  1  0  0  0  0
 30 59  1  0  0  0  0
 31 32  1  0  0  0  0
 31 60  1  0  0  0  0
 31 61  1  0  0  0  0
 32 33  2  0  0  0  0
 32 34  1  0  0  0  0
 33 35  1  0  0  0  0
 33 63  1  0  0  0  0
 34 36  2  0  0  0  0
 34 64  1  0  0  0  0
 35 37  2  0  0  0  0
 36 37  1  0  0  0  0
 36 65  1  0  0  0  0
M  END
> <PUBCHEM_COMPOUND_CID>
3084996

> <PUBCHEM_COMPOUND_CANONICALIZED>
1

> <PUBCHEM_CACTVS_COMPLEXITY>
858

> <PUBCHEM_CACTVS_HBOND_ACCEPTOR>
13

> <PUBCHEM_CACTVS_HBOND_DONOR>
7

> <PUBCHEM_CACTVS_ROTATABLE_BOND>
10

> <PUBCHEM_CACTVS_SUBSKEYS>
AAADceB4PAAAAAAAAAAAAAAAAAAAAAAAAAA0QIAAAAAAAAABAAAAGgAACAAADRSwmAMyDoAABgCIAiDSCAACCAAgIAAIiAEGiMgZNjKCMRKicAElwBEPuIfI5rwOIAABAAAAQABAAAIAAACAAAAAAAAAAA==

> <PUBCHEM_IUPAC_OPENEYE_NAME>
(4S,6S)-4-[2-[2-(3,4-dihydroxyphenyl)ethoxy]-2-oxo-ethyl]-5-ethylidene-6-[(2S,3R,4S,5S,6R)-3,4,5-trihydroxy-6-(hydroxymethyl)tetrahydropyran-2-yl]oxy-4H-pyran-3-carboxylic acid

> <PUBCHEM_IUPAC_CAS_NAME>
(4S,6S)-4-[2-[2-(3,4-dihydroxyphenyl)ethoxy]-2-oxoethyl]-5-ethylidene-6-[[(2S,3R,4S,5S,6R)-3,4,5-trihydroxy-6-(hydroxymethyl)-2-oxanyl]oxy]-4H-pyran-3-carboxylic acid

> <PUBCHEM_IUPAC_NAME_MARKUP>
(4<I>S</I>,6<I>S</I>)-4-[2-[2-(3,4-dihydroxyphenyl)ethoxy]-2-oxoethyl]-5-ethylidene-6-[(2<I>S</I>,3<I>R</I>,4<I>S</I>,5<I>S</I>,6<I>R</I>)-3,4,5-trihydroxy-6-(hydroxymethyl)oxan-2-yl]oxy-4<I>H</I>-pyran-3-carboxylic acid

> <PUBCHEM_IUPAC_NAME>
(4S,6S)-4-[2-[2-(3,4-dihydroxyphenyl)ethoxy]-2-oxoethyl]-5-ethylidene-6-[(2S,3R,4S,5S,6R)-3,4,5-trihydroxy-6-(hydroxymethyl)oxan-2-yl]oxy-4H-pyran-3-carboxylic acid

> <PUBCHEM_IUPAC_SYSTEMATIC_NAME>
(4S,6S)-4-[2-[2-[3,4-bis(oxidanyl)phenyl]ethoxy]-2-oxidanylidene-ethyl]-5-ethylidene-6-[(2S,3R,4S,5S,6R)-6-(hydroxymethyl)-3,4,5-tris(oxidanyl)oxan-2-yl]oxy-4H-pyran-3-carboxylic acid

> <PUBCHEM_IUPAC_TRADITIONAL_NAME>
(4S,6S)-4-[2-[2-(3,4-dihydroxyphenyl)ethoxy]-2-keto-ethyl]-5-ethylidene-6-[(2S,3R,4S,5S,6R)-3,4,5-trihydroxy-6-methylol-tetrahydropyran-2-yl]oxy-4H-pyran-3-carboxylic acid

> <PUBCHEM_IUPAC_INCHI>
InChI=1S/C24H30O13/c1-2-12-13(8-18(28)34-6-5-11-3-4-15(26)16(27)7-11)14(22(32)33)10-35-23(12)37-24-21(31)20(30)19(29)17(9-25)36-24/h2-4,7,10,13,17,19-21,23-27,29-31H,5-6,8-9H2,1H3,(H,32,33)/t13-,17+,19+,20-,21+,23-,24-/m0/s1

> <PUBCHEM_IUPAC_INCHIKEY>
HKVGJQVJNQRJPO-LRPGRGPISA-N

> <PUBCHEM_XLOGP3_AA>
-0.8

> <PUBCHEM_EXACT_MASS>
526.16864101

> <PUBCHEM_MOLECULAR_FORMULA>
C24H30O13

> <PUBCHEM_MOLECULAR_WEIGHT>
526.5

> <PUBCHEM_OPENEYE_CAN_SMILES>
CC=C1C(C(=COC1OC2C(C(C(C(O2)CO)O)O)O)C(=O)O)CC(=O)OCCC3=CC(=C(C=C3)O)O

> <PUBCHEM_OPENEYE_ISO_SMILES>
CC=C1[C@@H](C(=CO[C@H]1O[C@H]2[C@@H]([C@H]([C@@H]([C@H](O2)CO)O)O)O)C(=O)O)CC(=O)OCCC3=CC(=C(C=C3)O)O

> <PUBCHEM_CACTVS_TPSA>
213

> <PUBCHEM_MONOISOTOPIC_WEIGHT>
526.16864101

> <PUBCHEM_TOTAL_CHARGE>
0

> <PUBCHEM_HEAVY_ATOM_COUNT>
37

> <PUBCHEM_ATOM_DEF_STEREO_COUNT>
7

> <PUBCHEM_ATOM_UDEF_STEREO_COUNT>
0

> <PUBCHEM_BOND_DEF_STEREO_COUNT>
0

> <PUBCHEM_BOND_UDEF_STEREO_COUNT>
1

> <PUBCHEM_ISOTOPIC_ATOM_COUNT>
0

> <PUBCHEM_COMPONENT_COUNT>
1

> <PUBCHEM_CACTVS_TAUTO_COUNT>
-1

> <PUBCHEM_COORDINATE_TYPE>
1
5
255

> <PUBCHEM_BONDANNOTATIONS>
17  19  5
18  2  5
20  2  6
21  24  5
22  25  1
14  3  5
32  33  8
32  34  8
33  35  8
34  36  8
35  37  8
36  37  8
15  4  6
16  5  6

$$$$
