 
  -OEChem-10192103272D

 22 22  0     0  0  0  0  0  0999 V2000
    6.3301    1.0950    0.0000 S   0  0  0  0  0  0  0  0  0  0  0  0
    2.8660   -1.9050    0.0000 P   0  0  0  0  0  0  0  0  0  0  0  0
    6.3301   -1.9050    0.0000 P   0  0  0  0  0  0  0  0  0  0  0  0
    2.8660   -2.9050    0.0000 O   0  0  0  0  0  0  0  0  0  0  0  0
    2.0000   -1.4050    0.0000 O   0  0  0  0  0  0  0  0  0  0  0  0
    6.3301   -2.9050    0.0000 O   0  0  0  0  0  0  0  0  0  0  0  0
    7.1962   -1.4050    0.0000 O   0  0  0  0  0  0  0  0  0  0  0  0
    4.5981    1.0950    0.0000 N   0  0  0  0  0  0  0  0  0  0  0  0
    5.4641    2.5950    0.0000 N   0  0  0  0  0  0  0  0  0  0  0  0
    4.5981    0.0950    0.0000 C   0  0  0  0  0  0  0  0  0  0  0  0
    3.7320   -1.4050    0.0000 C   0  0  0  0  0  0  0  0  0  0  0  0
    5.4641   -1.4050    0.0000 C   0  0  0  0  0  0  0  0  0  0  0  0
    5.4641   -0.4050    0.0000 C   0  0  0  0  0  0  0  0  0  0  0  0
    3.7320   -0.4050    0.0000 C   0  0  0  0  0  0  0  0  0  0  0  0
    4.5981   -1.9050    0.0000 C   0  0  0  0  0  0  0  0  0  0  0  0
    5.4641    1.5950    0.0000 C   0  0  0  0  0  0  0  0  0  0  0  0
    6.0010   -0.0950    0.0000 H   0  0  0  0  0  0  0  0  0  0  0  0
    3.1951   -0.0950    0.0000 H   0  0  0  0  0  0  0  0  0  0  0  0
    4.5981   -2.5250    0.0000 H   0  0  0  0  0  0  0  0  0  0  0  0
    4.0611    1.4050    0.0000 H   0  0  0  0  0  0  0  0  0  0  0  0
    6.0010    2.9050    0.0000 H   0  0  0  0  0  0  0  0  0  0  0  0
    4.9272    2.9050    0.0000 H   0  0  0  0  0  0  0  0  0  0  0  0
  1 16  2  0  0  0  0
  2  4  2  0  0  0  0
  2  5  2  0  0  0  0
  2 11  1  0  0  0  0
  3  6  2  0  0  0  0
  3  7  2  0  0  0  0
  3 12  1  0  0  0  0
  8 10  1  0  0  0  0
  8 16  1  0  0  0  0
  8 20  1  0  0  0  0
  9 16  1  0  0  0  0
  9 21  1  0  0  0  0
  9 22  1  0  0  0  0
 10 13  2  0  0  0  0
 10 14  1  0  0  0  0
 11 14  2  0  0  0  0
 11 15  1  0  0  0  0
 12 13  1  0  0  0  0
 12 15  2  0  0  0  0
 13 17  1  0  0  0  0
 14 18  1  0  0  0  0
 15 19  1  0  0  0  0
M  END
> <PUBCHEM_COMPOUND_CID>
87591256

> <PUBCHEM_COMPOUND_CANONICALIZED>
0

> <PUBCHEM_CACTVS_COMPLEXITY>
364

> <PUBCHEM_CACTVS_HBOND_ACCEPTOR>
5

> <PUBCHEM_CACTVS_HBOND_DONOR>
2

> <PUBCHEM_CACTVS_ROTATABLE_BOND>
1

> <PUBCHEM_CACTVS_SUBSKEYS>
AAADcYBjOANAAAAAAAAAAAAAAAAAAAAAAAAwAAAAAAAAAAABAAAAHAwQACAACAiBEAAxwILAABCEQCRCQICCAAAhAgkAiAAAZIiIICLAkZGEIAhgkAJIyCcQAAAAAAAAAAAAAAAAAAAAAAAAAAAAAAAAAA==

> <PUBCHEM_IUPAC_INCHI>
InChI=1S/C7H6N2O4P2S/c8-7(16)9-4-1-5(14(10)11)3-6(2-4)15(12)13/h1-3H,(H3,8,9,16)

> <PUBCHEM_IUPAC_INCHIKEY>
ZKZKOTCCWPYRPN-UHFFFAOYSA-N

> <PUBCHEM_XLOGP3_AA>
-2

> <PUBCHEM_EXACT_MASS>
275.95235185

> <PUBCHEM_MOLECULAR_FORMULA>
C7H6N2O4P2S

> <PUBCHEM_MOLECULAR_WEIGHT>
276.15

> <PUBCHEM_OPENEYE_CAN_SMILES>
C1=C(C=C(C=C1P(=O)=O)P(=O)=O)NC(=S)N

> <PUBCHEM_OPENEYE_ISO_SMILES>
C1=C(C=C(C=C1P(=O)=O)P(=O)=O)NC(=S)N

> <PUBCHEM_CACTVS_TPSA>
138

> <PUBCHEM_MONOISOTOPIC_WEIGHT>
275.95235185

> <PUBCHEM_TOTAL_CHARGE>
0

> <PUBCHEM_HEAVY_ATOM_COUNT>
16

> <PUBCHEM_ATOM_DEF_STEREO_COUNT>
0

> <PUBCHEM_ATOM_UDEF_STEREO_COUNT>
0

> <PUBCHEM_BOND_DEF_STEREO_COUNT>
0

> <PUBCHEM_BOND_UDEF_STEREO_COUNT>
0

> <PUBCHEM_ISOTOPIC_ATOM_COUNT>
0

> <PUBCHEM_COMPONENT_COUNT>
1

> <PUBCHEM_CACTVS_TAUTO_COUNT>
-1

> <PUBCHEM_COORDINATE_TYPE>
1
5
255

> <PUBCHEM_BONDANNOTATIONS>
10  13  8
10  14  8
11  14  8
11  15  8
12  13  8
12  15  8

$$$$
