 
  -OEChem-10192103292D

 85 84  0     1  0  0  0  0  0999 V2000
    4.5981    0.9821    0.0000 S   0  0  0  0  0  0  0  0  0  0  0  0
    5.0981    0.1160    0.0000 S   0  0  0  0  0  0  0  0  0  0  0  0
    5.4641    4.2141    0.0000 O   0  0  0  0  0  0  0  0  0  0  0  0
    2.8660    2.7141    0.0000 O   0  0  0  0  0  0  0  0  0  0  0  0
    3.7320    1.2141    0.0000 O   0  0  0  0  0  0  0  0  0  0  0  0
    5.0981   -3.3481    0.0000 O   0  0  0  0  0  0  0  0  0  0  0  0
    3.5981   -2.4820    0.0000 O   0  0  0  0  0  0  0  0  0  0  0  0
    4.0981    3.5801    0.0000 N   0  0  0  0  0  0  0  0  0  0  0  0
    6.0981   -1.6160    0.0000 N   0  0  0  0  0  0  0  0  0  0  0  0
    6.3301    2.7141    0.0000 C   0  0  3  0  0  0  0  0  0  0  0  0
    7.1962    3.2141    0.0000 C   0  0  0  0  0  0  0  0  0  0  0  0
    6.3301    1.7141    0.0000 C   0  0  0  0  0  0  0  0  0  0  0  0
    8.0622    2.7141    0.0000 C   0  0  0  0  0  0  0  0  0  0  0  0
    7.1962    1.2141    0.0000 C   0  0  0  0  0  0  0  0  0  0  0  0
    5.4641    3.2141    0.0000 C   0  0  0  0  0  0  0  0  0  0  0  0
    8.9282    3.2141    0.0000 C   0  0  0  0  0  0  0  0  0  0  0  0
    4.5981    2.7141    0.0000 C   0  0  1  0  0  0  0  0  0  0  0  0
    7.1962    0.2141    0.0000 C   0  0  0  0  0  0  0  0  0  0  0  0
    9.7942    2.7141    0.0000 C   0  0  0  0  0  0  0  0  0  0  0  0
    8.0622   -0.2859    0.0000 C   0  0  0  0  0  0  0  0  0  0  0  0
   10.6603    3.2141    0.0000 C   0  0  0  0  0  0  0  0  0  0  0  0
    5.0981    1.8481    0.0000 C   0  0  0  0  0  0  0  0  0  0  0  0
   11.5263    2.7141    0.0000 C   0  0  0  0  0  0  0  0  0  0  0  0
    8.0622   -1.2859    0.0000 C   0  0  0  0  0  0  0  0  0  0  0  0
    3.7320    2.2141    0.0000 C   0  0  0  0  0  0  0  0  0  0  0  0
   12.3923    3.2141    0.0000 C   0  0  0  0  0  0  0  0  0  0  0  0
    8.9282   -1.7859    0.0000 C   0  0  0  0  0  0  0  0  0  0  0  0
   13.2583    2.7141    0.0000 C   0  0  0  0  0  0  0  0  0  0  0  0
    8.9282   -2.7859    0.0000 C   0  0  0  0  0  0  0  0  0  0  0  0
   14.1244    3.2141    0.0000 C   0  0  0  0  0  0  0  0  0  0  0  0
    2.0000    2.2141    0.0000 C   0  0  0  0  0  0  0  0  0  0  0  0
    4.5981   -0.7500    0.0000 C   0  0  0  0  0  0  0  0  0  0  0  0
    5.0981   -1.6160    0.0000 C   0  0  1  0  0  0  0  0  0  0  0  0
    4.5981   -2.4820    0.0000 C   0  0  0  0  0  0  0  0  0  0  0  0
    4.5981   -4.2141    0.0000 C   0  0  0  0  0  0  0  0  0  0  0  0
    6.8671    2.4041    0.0000 H   0  0  0  0  0  0  0  0  0  0  0  0
    7.5947    3.6890    0.0000 H   0  0  0  0  0  0  0  0  0  0  0  0
    6.7976    3.6890    0.0000 H   0  0  0  0  0  0  0  0  0  0  0  0
    5.7196    1.8218    0.0000 H   0  0  0  0  0  0  0  0  0  0  0  0
    6.1181    1.1315    0.0000 H   0  0  0  0  0  0  0  0  0  0  0  0
    7.6636    2.2392    0.0000 H   0  0  0  0  0  0  0  0  0  0  0  0
    8.4607    2.2392    0.0000 H   0  0  0  0  0  0  0  0  0  0  0  0
    7.8067    1.1064    0.0000 H   0  0  0  0  0  0  0  0  0  0  0  0
    7.4082    1.7967    0.0000 H   0  0  0  0  0  0  0  0  0  0  0  0
    9.3267    3.6890    0.0000 H   0  0  0  0  0  0  0  0  0  0  0  0
    8.5297    3.6890    0.0000 H   0  0  0  0  0  0  0  0  0  0  0  0
    6.5856    0.3218    0.0000 H   0  0  0  0  0  0  0  0  0  0  0  0
    6.9841   -0.3685    0.0000 H   0  0  0  0  0  0  0  0  0  0  0  0
    9.3957    2.2392    0.0000 H   0  0  0  0  0  0  0  0  0  0  0  0
   10.1928    2.2392    0.0000 H   0  0  0  0  0  0  0  0  0  0  0  0
    8.6728   -0.3936    0.0000 H   0  0  0  0  0  0  0  0  0  0  0  0
    8.2742    0.2967    0.0000 H   0  0  0  0  0  0  0  0  0  0  0  0
   11.0588    3.6890    0.0000 H   0  0  0  0  0  0  0  0  0  0  0  0
   10.2617    3.6890    0.0000 H   0  0  0  0  0  0  0  0  0  0  0  0
    5.5730    1.4495    0.0000 H   0  0  0  0  0  0  0  0  0  0  0  0
    5.5730    2.2466    0.0000 H   0  0  0  0  0  0  0  0  0  0  0  0
   11.1278    2.2392    0.0000 H   0  0  0  0  0  0  0  0  0  0  0  0
   11.9248    2.2392    0.0000 H   0  0  0  0  0  0  0  0  0  0  0  0
    7.4516   -1.1782    0.0000 H   0  0  0  0  0  0  0  0  0  0  0  0
    7.8501   -1.8685    0.0000 H   0  0  0  0  0  0  0  0  0  0  0  0
    3.4781    3.5801    0.0000 H   0  0  0  0  0  0  0  0  0  0  0  0
    4.4081    4.1171    0.0000 H   0  0  0  0  0  0  0  0  0  0  0  0
   12.7908    3.6890    0.0000 H   0  0  0  0  0  0  0  0  0  0  0  0
   11.9938    3.6890    0.0000 H   0  0  0  0  0  0  0  0  0  0  0  0
    9.5388   -1.8936    0.0000 H   0  0  0  0  0  0  0  0  0  0  0  0
    9.1403   -1.2033    0.0000 H   0  0  0  0  0  0  0  0  0  0  0  0
   12.8598    2.2392    0.0000 H   0  0  0  0  0  0  0  0  0  0  0  0
   13.6569    2.2392    0.0000 H   0  0  0  0  0  0  0  0  0  0  0  0
    8.3082   -2.7859    0.0000 H   0  0  0  0  0  0  0  0  0  0  0  0
    8.9282   -3.4059    0.0000 H   0  0  0  0  0  0  0  0  0  0  0  0
    9.5482   -2.7859    0.0000 H   0  0  0  0  0  0  0  0  0  0  0  0
   14.4344    2.6772    0.0000 H   0  0  0  0  0  0  0  0  0  0  0  0
   14.6613    3.5241    0.0000 H   0  0  0  0  0  0  0  0  0  0  0  0
   13.8144    3.7510    0.0000 H   0  0  0  0  0  0  0  0  0  0  0  0
    1.6900    2.7510    0.0000 H   0  0  0  0  0  0  0  0  0  0  0  0
    1.4631    1.9041    0.0000 H   0  0  0  0  0  0  0  0  0  0  0  0
    2.3100    1.6772    0.0000 H   0  0  0  0  0  0  0  0  0  0  0  0
    4.1231   -0.3515    0.0000 H   0  0  0  0  0  0  0  0  0  0  0  0
    4.1231   -1.1485    0.0000 H   0  0  0  0  0  0  0  0  0  0  0  0
    5.4081   -1.0791    0.0000 H   0  0  0  0  0  0  0  0  0  0  0  0
    6.4081   -2.1530    0.0000 H   0  0  0  0  0  0  0  0  0  0  0  0
    6.4081   -1.0791    0.0000 H   0  0  0  0  0  0  0  0  0  0  0  0
    4.0611   -3.9041    0.0000 H   0  0  0  0  0  0  0  0  0  0  0  0
    4.2881   -4.7510    0.0000 H   0  0  0  0  0  0  0  0  0  0  0  0
    5.1350   -4.5241    0.0000 H   0  0  0  0  0  0  0  0  0  0  0  0
  1  2  1  0  0  0  0
  1 22  1  0  0  0  0
  2 32  1  0  0  0  0
  3 15  2  0  0  0  0
  4 25  1  0  0  0  0
  4 31  1  0  0  0  0
  5 25  2  0  0  0  0
  6 34  1  0  0  0  0
  6 35  1  0  0  0  0
  7 34  2  0  0  0  0
 17  8  1  1  0  0  0
  8 61  1  0  0  0  0
  8 62  1  0  0  0  0
 33  9  1  6  0  0  0
  9 81  1  0  0  0  0
  9 82  1  0  0  0  0
 10 11  1  0  0  0  0
 10 12  1  0  0  0  0
 10 15  1  0  0  0  0
 10 36  1  0  0  0  0
 11 13  1  0  0  0  0
 11 37  1  0  0  0  0
 11 38  1  0  0  0  0
 12 14  1  0  0  0  0
 12 39  1  0  0  0  0
 12 40  1  0  0  0  0
 13 16  1  0  0  0  0
 13 41  1  0  0  0  0
 13 42  1  0  0  0  0
 14 18  1  0  0  0  0
 14 43  1  0  0  0  0
 14 44  1  0  0  0  0
 15 17  1  0  0  0  0
 16 19  1  0  0  0  0
 16 45  1  0  0  0  0
 16 46  1  0  0  0  0
 17 22  1  0  0  0  0
 17 25  1  0  0  0  0
 18 20  1  0  0  0  0
 18 47  1  0  0  0  0
 18 48  1  0  0  0  0
 19 21  1  0  0  0  0
 19 49  1  0  0  0  0
 19 50  1  0  0  0  0
 20 24  1  0  0  0  0
 20 51  1  0  0  0  0
 20 52  1  0  0  0  0
 21 23  1  0  0  0  0
 21 53  1  0  0  0  0
 21 54  1  0  0  0  0
 22 55  1  0  0  0  0
 22 56  1  0  0  0  0
 23 26  1  0  0  0  0
 23 57  1  0  0  0  0
 23 58  1  0  0  0  0
 24 27  1  0  0  0  0
 24 59  1  0  0  0  0
 24 60  1  0  0  0  0
 26 28  1  0  0  0  0
 26 63  1  0  0  0  0
 26 64  1  0  0  0  0
 27 29  1  0  0  0  0
 27 65  1  0  0  0  0
 27 66  1  0  0  0  0
 28 30  1  0  0  0  0
 28 67  1  0  0  0  0
 28 68  1  0  0  0  0
 29 69  1  0  0  0  0
 29 70  1  0  0  0  0
 29 71  1  0  0  0  0
 30 72  1  0  0  0  0
 30 73  1  0  0  0  0
 30 74  1  0  0  0  0
 31 75  1  0  0  0  0
 31 76  1  0  0  0  0
 31 77  1  0  0  0  0
 32 33  1  0  0  0  0
 32 78  1  0  0  0  0
 32 79  1  0  0  0  0
 33 34  1  0  0  0  0
 33 80  1  0  0  0  0
 35 83  1  0  0  0  0
 35 84  1  0  0  0  0
 35 85  1  0  0  0  0
M  END
> <PUBCHEM_COMPOUND_CID>
118471584

> <PUBCHEM_COMPOUND_CANONICALIZED>
1

> <PUBCHEM_CACTVS_COMPLEXITY>
594

> <PUBCHEM_CACTVS_HBOND_ACCEPTOR>
9

> <PUBCHEM_CACTVS_HBOND_DONOR>
2

> <PUBCHEM_CACTVS_ROTATABLE_BOND>
25

> <PUBCHEM_CACTVS_SUBSKEYS>
AAADcfB7OABgAAAAAAAAAAAAAAAAAAAAAAAAAAAAAAAAAAAAAAAAHgQQAAAADazFwAaCCABABAAIAICQCAAAAAAAAAAAAIGAAAACABYIgAABAAAEMAAAAAGYyOCOAAAAAAAAAAAAAAAAAAAAAAAAAAAAAA==

> <PUBCHEM_IUPAC_OPENEYE_NAME>
methyl (2R)-2-amino-2-[[[(2R)-2-amino-3-methoxy-3-oxo-propyl]disulfanyl]methyl]-4-heptyl-3-oxo-tridecanoate

> <PUBCHEM_IUPAC_CAS_NAME>
(2R)-2-amino-2-[[[(2R)-2-amino-3-methoxy-3-oxopropyl]disulfanyl]methyl]-4-heptyl-3-oxotridecanoic acid methyl ester

> <PUBCHEM_IUPAC_NAME_MARKUP>
methyl (2<I>R</I>)-2-amino-2-[[[(2<I>R</I>)-2-amino-3-methoxy-3-oxopropyl]disulfanyl]methyl]-4-heptyl-3-oxotridecanoate

> <PUBCHEM_IUPAC_NAME>
methyl (2R)-2-amino-2-[[[(2R)-2-amino-3-methoxy-3-oxopropyl]disulfanyl]methyl]-4-heptyl-3-oxotridecanoate

> <PUBCHEM_IUPAC_SYSTEMATIC_NAME>
methyl (2R)-2-azanyl-2-[[[(2R)-2-azanyl-3-methoxy-3-oxidanylidene-propyl]disulfanyl]methyl]-4-heptyl-3-oxidanylidene-tridecanoate

> <PUBCHEM_IUPAC_TRADITIONAL_NAME>
(2R)-2-amino-2-[[[(2R)-2-amino-3-keto-3-methoxy-propyl]disulfanyl]methyl]-4-heptyl-3-keto-tridecanoic acid methyl ester

> <PUBCHEM_IUPAC_INCHI>
InChI=1S/C26H50N2O5S2/c1-5-7-9-11-12-14-16-18-21(17-15-13-10-8-6-2)23(29)26(28,25(31)33-4)20-35-34-19-22(27)24(30)32-3/h21-22H,5-20,27-28H2,1-4H3/t21?,22-,26+/m0/s1

> <PUBCHEM_IUPAC_INCHIKEY>
SMOIOZYJJSGECE-UGPPBOCOSA-N

> <PUBCHEM_XLOGP3_AA>
6.9

> <PUBCHEM_EXACT_MASS>
534.31611505

> <PUBCHEM_MOLECULAR_FORMULA>
C26H50N2O5S2

> <PUBCHEM_MOLECULAR_WEIGHT>
534.8

> <PUBCHEM_OPENEYE_CAN_SMILES>
CCCCCCCCCC(CCCCCCC)C(=O)C(CSSCC(C(=O)OC)N)(C(=O)OC)N

> <PUBCHEM_OPENEYE_ISO_SMILES>
CCCCCCCCCC(CCCCCCC)C(=O)[C@](CSSC[C@@H](C(=O)OC)N)(C(=O)OC)N

> <PUBCHEM_CACTVS_TPSA>
172

> <PUBCHEM_MONOISOTOPIC_WEIGHT>
534.31611505

> <PUBCHEM_TOTAL_CHARGE>
0

> <PUBCHEM_HEAVY_ATOM_COUNT>
35

> <PUBCHEM_ATOM_DEF_STEREO_COUNT>
2

> <PUBCHEM_ATOM_UDEF_STEREO_COUNT>
1

> <PUBCHEM_BOND_DEF_STEREO_COUNT>
0

> <PUBCHEM_BOND_UDEF_STEREO_COUNT>
0

> <PUBCHEM_ISOTOPIC_ATOM_COUNT>
0

> <PUBCHEM_COMPONENT_COUNT>
1

> <PUBCHEM_CACTVS_TAUTO_COUNT>
-1

> <PUBCHEM_COORDINATE_TYPE>
1
5
255

> <PUBCHEM_BONDANNOTATIONS>
10  12  3
17  8  5
33  9  6

$$$$
