 
  -OEChem-10192103322D

 30 30  0     1  0  0  0  0  0999 V2000
    2.8660    0.3450    0.0000 O   0  0  0  0  0  0  0  0  0  0  0  0
    4.5981   -2.6550    0.0000 O   0  0  0  0  0  0  0  0  0  0  0  0
    3.7320    1.8450    0.0000 O   0  0  0  0  0  0  0  0  0  0  0  0
    5.4641    2.8450    0.0000 O   0  0  0  0  0  0  0  0  0  0  0  0
    7.1962   -1.1550    0.0000 O   0  0  0  0  0  0  0  0  0  0  0  0
    6.3301    1.3450    0.0000 O   0  0  0  0  0  0  0  0  0  0  0  0
    6.3301   -2.6550    0.0000 O   0  0  0  0  0  0  0  0  0  0  0  0
    4.5981    0.3450    0.0000 C   0  0  0  0  0  0  0  0  0  0  0  0
    4.5981    1.3450    0.0000 C   0  0  3  0  0  0  0  0  0  0  0  0
    3.7320   -0.1550    0.0000 C   0  0  0  0  0  0  0  0  0  0  0  0
    5.4641   -0.1550    0.0000 C   0  0  0  0  0  0  0  0  0  0  0  0
    5.4641   -1.1550    0.0000 C   0  0  0  0  0  0  0  0  0  0  0  0
    4.5981   -1.6550    0.0000 C   0  0  0  0  0  0  0  0  0  0  0  0
    3.7320   -1.1550    0.0000 C   0  0  0  0  0  0  0  0  0  0  0  0
    5.4641    1.8450    0.0000 C   0  0  0  0  0  0  0  0  0  0  0  0
    6.3301   -1.6550    0.0000 C   0  0  0  0  0  0  0  0  0  0  0  0
    2.0000   -0.1550    0.0000 C   0  0  0  0  0  0  0  0  0  0  0  0
    3.7320   -3.1550    0.0000 C   0  0  0  0  0  0  0  0  0  0  0  0
    4.5981    1.9650    0.0000 H   0  0  0  0  0  0  0  0  0  0  0  0
    6.0010    0.1550    0.0000 H   0  0  0  0  0  0  0  0  0  0  0  0
    3.1951   -1.4650    0.0000 H   0  0  0  0  0  0  0  0  0  0  0  0
    3.7320    2.4650    0.0000 H   0  0  0  0  0  0  0  0  0  0  0  0
    1.6900    0.3819    0.0000 H   0  0  0  0  0  0  0  0  0  0  0  0
    1.4631   -0.4650    0.0000 H   0  0  0  0  0  0  0  0  0  0  0  0
    2.3100   -0.6919    0.0000 H   0  0  0  0  0  0  0  0  0  0  0  0
    3.4220   -2.6181    0.0000 H   0  0  0  0  0  0  0  0  0  0  0  0
    3.1951   -3.4650    0.0000 H   0  0  0  0  0  0  0  0  0  0  0  0
    4.0420   -3.6919    0.0000 H   0  0  0  0  0  0  0  0  0  0  0  0
    6.0010    3.1550    0.0000 H   0  0  0  0  0  0  0  0  0  0  0  0
    7.7331   -1.4650    0.0000 H   0  0  0  0  0  0  0  0  0  0  0  0
  1 10  1  0  0  0  0
  1 17  1  0  0  0  0
  2 13  1  0  0  0  0
  2 18  1  0  0  0  0
  3  9  1  0  0  0  0
  3 22  1  0  0  0  0
  4 15  1  0  0  0  0
  4 29  1  0  0  0  0
  5 16  1  0  0  0  0
  5 30  1  0  0  0  0
  6 15  2  0  0  0  0
  7 16  2  0  0  0  0
  8  9  1  0  0  0  0
  8 10  1  0  0  0  0
  8 11  2  0  0  0  0
  9 15  1  0  0  0  0
  9 19  1  0  0  0  0
 10 14  2  0  0  0  0
 11 12  1  0  0  0  0
 11 20  1  0  0  0  0
 12 13  2  0  0  0  0
 12 16  1  0  0  0  0
 13 14  1  0  0  0  0
 14 21  1  0  0  0  0
 17 23  1  0  0  0  0
 17 24  1  0  0  0  0
 17 25  1  0  0  0  0
 18 26  1  0  0  0  0
 18 27  1  0  0  0  0
 18 28  1  0  0  0  0
M  END
> <PUBCHEM_COMPOUND_CID>
117393437

> <PUBCHEM_COMPOUND_CANONICALIZED>
1

> <PUBCHEM_CACTVS_COMPLEXITY>
317

> <PUBCHEM_CACTVS_HBOND_ACCEPTOR>
7

> <PUBCHEM_CACTVS_HBOND_DONOR>
3

> <PUBCHEM_CACTVS_ROTATABLE_BOND>
5

> <PUBCHEM_CACTVS_SUBSKEYS>
AAADccBwOAAAAAAAAAAAAAAAAAAAAAAAAAAwAAAAAAAAAAABAAAAGgAACAAADBSgmAIyDoAABgCIAiDSCAICCAAkIAAAiAFGCMgNNzaENRqAcWAl4BUJuYfK7PzOIAACCAAIAABAAAQQABAAAAAAAAAAAA==

> <PUBCHEM_IUPAC_OPENEYE_NAME>
5-[carboxy(hydroxy)methyl]-2,4-dimethoxy-benzoic acid

> <PUBCHEM_IUPAC_CAS_NAME>
5-[carboxy(hydroxy)methyl]-2,4-dimethoxybenzoic acid

> <PUBCHEM_IUPAC_NAME_MARKUP>
5-[carboxy(hydroxy)methyl]-2,4-dimethoxybenzoic acid

> <PUBCHEM_IUPAC_NAME>
5-[carboxy(hydroxy)methyl]-2,4-dimethoxybenzoic acid

> <PUBCHEM_IUPAC_SYSTEMATIC_NAME>
5-[1,2-bis(oxidanyl)-2-oxidanylidene-ethyl]-2,4-dimethoxy-benzoic acid

> <PUBCHEM_IUPAC_TRADITIONAL_NAME>
5-[carboxy(hydroxy)methyl]-2,4-dimethoxy-benzoic acid

> <PUBCHEM_IUPAC_INCHI>
InChI=1S/C11H12O7/c1-17-7-4-8(18-2)6(10(13)14)3-5(7)9(12)11(15)16/h3-4,9,12H,1-2H3,(H,13,14)(H,15,16)

> <PUBCHEM_IUPAC_INCHIKEY>
LMPPASSGXKTZGS-UHFFFAOYSA-N

> <PUBCHEM_XLOGP3_AA>
0.3

> <PUBCHEM_EXACT_MASS>
256.05830272

> <PUBCHEM_MOLECULAR_FORMULA>
C11H12O7

> <PUBCHEM_MOLECULAR_WEIGHT>
256.21

> <PUBCHEM_OPENEYE_CAN_SMILES>
COC1=CC(=C(C=C1C(C(=O)O)O)C(=O)O)OC

> <PUBCHEM_OPENEYE_ISO_SMILES>
COC1=CC(=C(C=C1C(C(=O)O)O)C(=O)O)OC

> <PUBCHEM_CACTVS_TPSA>
113

> <PUBCHEM_MONOISOTOPIC_WEIGHT>
256.05830272

> <PUBCHEM_TOTAL_CHARGE>
0

> <PUBCHEM_HEAVY_ATOM_COUNT>
18

> <PUBCHEM_ATOM_DEF_STEREO_COUNT>
0

> <PUBCHEM_ATOM_UDEF_STEREO_COUNT>
1

> <PUBCHEM_BOND_DEF_STEREO_COUNT>
0

> <PUBCHEM_BOND_UDEF_STEREO_COUNT>
0

> <PUBCHEM_ISOTOPIC_ATOM_COUNT>
0

> <PUBCHEM_COMPONENT_COUNT>
1

> <PUBCHEM_CACTVS_TAUTO_COUNT>
-1

> <PUBCHEM_COORDINATE_TYPE>
1
5
255

> <PUBCHEM_BONDANNOTATIONS>
10  14  8
11  12  8
12  13  8
13  14  8
9  3  3
8  10  8
8  11  8

$$$$
