 
  -OEChem-10192104192D

 68 67  0     0  0  0  0  0  0999 V2000
   10.3312   -0.2500    0.0000 O   0  0  0  0  0  0  0  0  0  0  0  0
   16.3933    0.2500    0.0000 O   0  0  0  0  0  0  0  0  0  0  0  0
    9.4651    1.2500    0.0000 O   0  0  0  0  0  0  0  0  0  0  0  0
   17.2594   -1.2500    0.0000 O   0  0  0  0  0  0  0  0  0  0  0  0
    2.5369    0.2500    0.0000 O   0  0  0  0  0  0  0  0  0  0  0  0
   24.1876   -0.2500    0.0000 O   0  0  0  0  0  0  0  0  0  0  0  0
    3.4030   -1.2500    0.0000 O   0  0  0  0  0  0  0  0  0  0  0  0
   23.3215    1.2500    0.0000 O   0  0  0  0  0  0  0  0  0  0  0  0
   12.9292    0.2500    0.0000 C   0  0  0  0  0  0  0  0  0  0  0  0
   13.7953   -0.2500    0.0000 C   0  0  0  0  0  0  0  0  0  0  0  0
    6.8671   -0.2500    0.0000 C   0  0  0  0  0  0  0  0  0  0  0  0
   19.8574    0.2500    0.0000 C   0  0  0  0  0  0  0  0  0  0  0  0
    6.0010    0.2500    0.0000 C   0  0  0  0  0  0  0  0  0  0  0  0
   20.7235   -0.2500    0.0000 C   0  0  0  0  0  0  0  0  0  0  0  0
   12.0632   -0.2500    0.0000 C   0  0  0  0  0  0  0  0  0  0  0  0
   14.6613    0.2500    0.0000 C   0  0  0  0  0  0  0  0  0  0  0  0
    7.7331    0.2500    0.0000 C   0  0  0  0  0  0  0  0  0  0  0  0
   18.9914   -0.2500    0.0000 C   0  0  0  0  0  0  0  0  0  0  0  0
    5.1350   -0.2500    0.0000 C   0  0  0  0  0  0  0  0  0  0  0  0
   21.5895    0.2500    0.0000 C   0  0  0  0  0  0  0  0  0  0  0  0
    8.5991   -0.2500    0.0000 C   0  0  0  0  0  0  0  0  0  0  0  0
   18.1254    0.2500    0.0000 C   0  0  0  0  0  0  0  0  0  0  0  0
   11.1972    0.2500    0.0000 C   0  0  0  0  0  0  0  0  0  0  0  0
   15.5273   -0.2500    0.0000 C   0  0  0  0  0  0  0  0  0  0  0  0
    4.2690    0.2500    0.0000 C   0  0  0  0  0  0  0  0  0  0  0  0
   22.4555   -0.2500    0.0000 C   0  0  0  0  0  0  0  0  0  0  0  0
    9.4651    0.2500    0.0000 C   0  0  0  0  0  0  0  0  0  0  0  0
   17.2594   -0.2500    0.0000 C   0  0  0  0  0  0  0  0  0  0  0  0
    3.4030   -0.2500    0.0000 C   0  0  0  0  0  0  0  0  0  0  0  0
   23.3215    0.2500    0.0000 C   0  0  0  0  0  0  0  0  0  0  0  0
   13.3278    0.7249    0.0000 H   0  0  0  0  0  0  0  0  0  0  0  0
   12.5307    0.7249    0.0000 H   0  0  0  0  0  0  0  0  0  0  0  0
   13.3967   -0.7249    0.0000 H   0  0  0  0  0  0  0  0  0  0  0  0
   14.1938   -0.7249    0.0000 H   0  0  0  0  0  0  0  0  0  0  0  0
    6.4685   -0.7249    0.0000 H   0  0  0  0  0  0  0  0  0  0  0  0
    7.2656   -0.7249    0.0000 H   0  0  0  0  0  0  0  0  0  0  0  0
   20.2560    0.7249    0.0000 H   0  0  0  0  0  0  0  0  0  0  0  0
   19.4589    0.7249    0.0000 H   0  0  0  0  0  0  0  0  0  0  0  0
    6.3996    0.7249    0.0000 H   0  0  0  0  0  0  0  0  0  0  0  0
    5.6025    0.7249    0.0000 H   0  0  0  0  0  0  0  0  0  0  0  0
   20.3249   -0.7249    0.0000 H   0  0  0  0  0  0  0  0  0  0  0  0
   21.1220   -0.7249    0.0000 H   0  0  0  0  0  0  0  0  0  0  0  0
   11.6647   -0.7249    0.0000 H   0  0  0  0  0  0  0  0  0  0  0  0
   12.4617   -0.7249    0.0000 H   0  0  0  0  0  0  0  0  0  0  0  0
   15.0598    0.7249    0.0000 H   0  0  0  0  0  0  0  0  0  0  0  0
   14.2628    0.7249    0.0000 H   0  0  0  0  0  0  0  0  0  0  0  0
    8.1316    0.7249    0.0000 H   0  0  0  0  0  0  0  0  0  0  0  0
    7.3346    0.7249    0.0000 H   0  0  0  0  0  0  0  0  0  0  0  0
   18.5929   -0.7249    0.0000 H   0  0  0  0  0  0  0  0  0  0  0  0
   19.3899   -0.7249    0.0000 H   0  0  0  0  0  0  0  0  0  0  0  0
    4.7365   -0.7249    0.0000 H   0  0  0  0  0  0  0  0  0  0  0  0
    5.5335   -0.7249    0.0000 H   0  0  0  0  0  0  0  0  0  0  0  0
   21.9880    0.7249    0.0000 H   0  0  0  0  0  0  0  0  0  0  0  0
   21.1910    0.7249    0.0000 H   0  0  0  0  0  0  0  0  0  0  0  0
    8.2006   -0.7249    0.0000 H   0  0  0  0  0  0  0  0  0  0  0  0
    8.9976   -0.7249    0.0000 H   0  0  0  0  0  0  0  0  0  0  0  0
   18.5239    0.7249    0.0000 H   0  0  0  0  0  0  0  0  0  0  0  0
   17.7269    0.7249    0.0000 H   0  0  0  0  0  0  0  0  0  0  0  0
   11.5957    0.7249    0.0000 H   0  0  0  0  0  0  0  0  0  0  0  0
   10.7987    0.7249    0.0000 H   0  0  0  0  0  0  0  0  0  0  0  0
   15.1288   -0.7249    0.0000 H   0  0  0  0  0  0  0  0  0  0  0  0
   15.9258   -0.7249    0.0000 H   0  0  0  0  0  0  0  0  0  0  0  0
    4.6675    0.7249    0.0000 H   0  0  0  0  0  0  0  0  0  0  0  0
    3.8705    0.7249    0.0000 H   0  0  0  0  0  0  0  0  0  0  0  0
   22.0570   -0.7249    0.0000 H   0  0  0  0  0  0  0  0  0  0  0  0
   22.8540   -0.7249    0.0000 H   0  0  0  0  0  0  0  0  0  0  0  0
    2.0000   -0.0600    0.0000 H   0  0  0  0  0  0  0  0  0  0  0  0
   24.7245    0.0600    0.0000 H   0  0  0  0  0  0  0  0  0  0  0  0
  1 23  1  0  0  0  0
  1 27  1  0  0  0  0
  2 24  1  0  0  0  0
  2 28  1  0  0  0  0
  3 27  2  0  0  0  0
  4 28  2  0  0  0  0
  5 29  1  0  0  0  0
  5 67  1  0  0  0  0
  6 30  1  0  0  0  0
  6 68  1  0  0  0  0
  7 29  2  0  0  0  0
  8 30  2  0  0  0  0
  9 10  1  0  0  0  0
  9 15  1  0  0  0  0
  9 31  1  0  0  0  0
  9 32  1  0  0  0  0
 10 16  1  0  0  0  0
 10 33  1  0  0  0  0
 10 34  1  0  0  0  0
 11 13  1  0  0  0  0
 11 17  1  0  0  0  0
 11 35  1  0  0  0  0
 11 36  1  0  0  0  0
 12 14  1  0  0  0  0
 12 18  1  0  0  0  0
 12 37  1  0  0  0  0
 12 38  1  0  0  0  0
 13 19  1  0  0  0  0
 13 39  1  0  0  0  0
 13 40  1  0  0  0  0
 14 20  1  0  0  0  0
 14 41  1  0  0  0  0
 14 42  1  0  0  0  0
 15 23  1  0  0  0  0
 15 43  1  0  0  0  0
 15 44  1  0  0  0  0
 16 24  1  0  0  0  0
 16 45  1  0  0  0  0
 16 46  1  0  0  0  0
 17 21  1  0  0  0  0
 17 47  1  0  0  0  0
 17 48  1  0  0  0  0
 18 22  1  0  0  0  0
 18 49  1  0  0  0  0
 18 50  1  0  0  0  0
 19 25  1  0  0  0  0
 19 51  1  0  0  0  0
 19 52  1  0  0  0  0
 20 26  1  0  0  0  0
 20 53  1  0  0  0  0
 20 54  1  0  0  0  0
 21 27  1  0  0  0  0
 21 55  1  0  0  0  0
 21 56  1  0  0  0  0
 22 28  1  0  0  0  0
 22 57  1  0  0  0  0
 22 58  1  0  0  0  0
 23 59  1  0  0  0  0
 23 60  1  0  0  0  0
 24 61  1  0  0  0  0
 24 62  1  0  0  0  0
 25 29  1  0  0  0  0
 25 63  1  0  0  0  0
 25 64  1  0  0  0  0
 26 30  1  0  0  0  0
 26 65  1  0  0  0  0
 26 66  1  0  0  0  0
M  END
> <PUBCHEM_COMPOUND_CID>
87978069

> <PUBCHEM_COMPOUND_CANONICALIZED>
1

> <PUBCHEM_CACTVS_COMPLEXITY>
446

> <PUBCHEM_CACTVS_HBOND_ACCEPTOR>
8

> <PUBCHEM_CACTVS_HBOND_DONOR>
2

> <PUBCHEM_CACTVS_ROTATABLE_BOND>
23

> <PUBCHEM_CACTVS_SUBSKEYS>
AAADcfB4PAAAAAAAAAAAAAAAAAAAAAAAAAAAAAAAAAAAAAAAAAAAGgAACAAACACggAIACAAABgAIAACQCAAAAAAAAAAAAAEAAAAAABIAAAACQAAEAAAAAAGIyKCAAAAAAAAAAAAAAAAAAAAAAAAAAAAAAA==

> <PUBCHEM_IUPAC_OPENEYE_NAME>
8-[6-(7-carboxyheptanoyloxy)hexoxy]-8-oxo-octanoic acid

> <PUBCHEM_IUPAC_CAS_NAME>
8-[6-(7-carboxy-1-oxoheptoxy)hexoxy]-8-oxooctanoic acid

> <PUBCHEM_IUPAC_NAME_MARKUP>
8-[6-(7-carboxyheptanoyloxy)hexoxy]-8-oxooctanoic acid

> <PUBCHEM_IUPAC_NAME>
8-[6-(7-carboxyheptanoyloxy)hexoxy]-8-oxooctanoic acid

> <PUBCHEM_IUPAC_SYSTEMATIC_NAME>
8-oxidanylidene-8-[6-(8-oxidanyl-8-oxidanylidene-octanoyl)oxyhexoxy]octanoic acid

> <PUBCHEM_IUPAC_TRADITIONAL_NAME>
8-[6-(7-carboxyheptanoyloxy)hexoxy]-8-keto-caprylic acid

> <PUBCHEM_IUPAC_INCHI>
InChI=1S/C22H38O8/c23-19(24)13-7-1-3-9-15-21(27)29-17-11-5-6-12-18-30-22(28)16-10-4-2-8-14-20(25)26/h1-18H2,(H,23,24)(H,25,26)

> <PUBCHEM_IUPAC_INCHIKEY>
OOTXNSYXEPXYMS-UHFFFAOYSA-N

> <PUBCHEM_XLOGP3_AA>
3.9

> <PUBCHEM_EXACT_MASS>
430.25666817

> <PUBCHEM_MOLECULAR_FORMULA>
C22H38O8

> <PUBCHEM_MOLECULAR_WEIGHT>
430.5

> <PUBCHEM_OPENEYE_CAN_SMILES>
C(CCCC(=O)OCCCCCCOC(=O)CCCCCCC(=O)O)CCC(=O)O

> <PUBCHEM_OPENEYE_ISO_SMILES>
C(CCCC(=O)OCCCCCCOC(=O)CCCCCCC(=O)O)CCC(=O)O

> <PUBCHEM_CACTVS_TPSA>
127

> <PUBCHEM_MONOISOTOPIC_WEIGHT>
430.25666817

> <PUBCHEM_TOTAL_CHARGE>
0

> <PUBCHEM_HEAVY_ATOM_COUNT>
30

> <PUBCHEM_ATOM_DEF_STEREO_COUNT>
0

> <PUBCHEM_ATOM_UDEF_STEREO_COUNT>
0

> <PUBCHEM_BOND_DEF_STEREO_COUNT>
0

> <PUBCHEM_BOND_UDEF_STEREO_COUNT>
0

> <PUBCHEM_ISOTOPIC_ATOM_COUNT>
0

> <PUBCHEM_COMPONENT_COUNT>
1

> <PUBCHEM_CACTVS_TAUTO_COUNT>
-1

> <PUBCHEM_COORDINATE_TYPE>
1
5
255

$$$$
