 
  -OEChem-10192104162D

 45 47  0     1  0  0  0  0  0999 V2000
    8.2857    0.2103    0.0000 O   0  0  0  0  0  0  0  0  0  0  0  0
    4.5576   -0.2103    0.0000 O   0  0  0  0  0  0  0  0  0  0  0  0
    6.3177   -0.4891    0.0000 O   0  0  0  0  0  0  0  0  0  0  0  0
    7.1979    2.5582    0.0000 O   0  0  0  0  0  0  0  0  0  0  0  0
    5.6454   -2.5582    0.0000 O   0  0  0  0  0  0  0  0  0  0  0  0
    3.4698   -2.5582    0.0000 O   0  0  0  0  0  0  0  0  0  0  0  0
    2.5896    0.4891    0.0000 O   0  0  0  0  0  0  0  0  0  0  0  0
    9.5105   -1.1582    0.0000 O   0  0  0  0  0  0  0  0  0  0  0  0
   12.8989   -0.4380    0.0000 O   0  0  0  0  0  0  0  0  0  0  0  0
   10.0458    0.4891    0.0000 N   0  0  0  0  0  0  0  0  0  0  0  0
   11.2047   -0.7981    0.0000 N   0  0  0  0  0  0  0  0  0  0  0  0
    7.4767    0.7981    0.0000 C   0  0  1  0  0  0  0  0  0  0  0  0
    7.7857    1.7492    0.0000 C   0  0  2  0  0  0  0  0  0  0  0  0
    8.7857    1.7492    0.0000 C   0  0  0  0  0  0  0  0  0  0  0  0
    9.0947    0.7981    0.0000 C   0  0  1  0  0  0  0  0  0  0  0  0
    5.0576   -1.7492    0.0000 C   0  0  2  0  0  0  0  0  0  0  0  0
    5.3667   -0.7981    0.0000 C   0  0  3  0  0  0  0  0  0  0  0  0
    4.0576   -1.7492    0.0000 C   0  0  1  0  0  0  0  0  0  0  0  0
    3.7486   -0.7981    0.0000 C   0  0  1  0  0  0  0  0  0  0  0  0
    6.5256    0.4891    0.0000 C   0  0  0  0  0  0  0  0  0  0  0  0
    2.7976   -0.4891    0.0000 C   0  0  0  0  0  0  0  0  0  0  0  0
   10.2537   -0.4891    0.0000 C   0  0  0  0  0  0  0  0  0  0  0  0
   10.7889    1.1582    0.0000 C   0  0  0  0  0  0  0  0  0  0  0  0
   11.7400    0.8492    0.0000 C   0  0  0  0  0  0  0  0  0  0  0  0
   11.9479   -0.1290    0.0000 C   0  0  0  0  0  0  0  0  0  0  0  0
    7.3797    0.1857    0.0000 H   0  0  0  0  0  0  0  0  0  0  0  0
    8.0672    2.3016    0.0000 H   0  0  0  0  0  0  0  0  0  0  0  0
    9.3922    1.8780    0.0000 H   0  0  0  0  0  0  0  0  0  0  0  0
    8.7209    2.3657    0.0000 H   0  0  0  0  0  0  0  0  0  0  0  0
    9.1917    0.1857    0.0000 H   0  0  0  0  0  0  0  0  0  0  0  0
    4.7762   -2.3016    0.0000 H   0  0  0  0  0  0  0  0  0  0  0  0
    5.8051   -1.2365    0.0000 H   0  0  0  0  0  0  0  0  0  0  0  0
    3.4453   -1.6522    0.0000 H   0  0  0  0  0  0  0  0  0  0  0  0
    3.6516   -0.1857    0.0000 H   0  0  0  0  0  0  0  0  0  0  0  0
    6.4393    1.1030    0.0000 H   0  0  0  0  0  0  0  0  0  0  0  0
    5.9060    0.5107    0.0000 H   0  0  0  0  0  0  0  0  0  0  0  0
    2.1779   -0.5107    0.0000 H   0  0  0  0  0  0  0  0  0  0  0  0
    2.7113   -1.1030    0.0000 H   0  0  0  0  0  0  0  0  0  0  0  0
    7.4501    3.1246    0.0000 H   0  0  0  0  0  0  0  0  0  0  0  0
    5.3932   -3.1246    0.0000 H   0  0  0  0  0  0  0  0  0  0  0  0
    2.8532   -2.4934    0.0000 H   0  0  0  0  0  0  0  0  0  0  0  0
   10.6600    1.7647    0.0000 H   0  0  0  0  0  0  0  0  0  0  0  0
    2.0000    0.6807    0.0000 H   0  0  0  0  0  0  0  0  0  0  0  0
   11.3336   -1.4045    0.0000 H   0  0  0  0  0  0  0  0  0  0  0  0
   12.2007    1.2640    0.0000 H   0  0  0  0  0  0  0  0  0  0  0  0
  1 12  1  0  0  0  0
  1 15  1  0  0  0  0
  2 17  1  0  0  0  0
  2 19  1  0  0  0  0
  3 17  1  0  0  0  0
  3 20  1  0  0  0  0
 13  4  1  1  0  0  0
  4 39  1  0  0  0  0
 16  5  1  1  0  0  0
  5 40  1  0  0  0  0
 18  6  1  6  0  0  0
  6 41  1  0  0  0  0
  7 21  1  0  0  0  0
  7 43  1  0  0  0  0
  8 22  2  0  0  0  0
  9 25  2  0  0  0  0
 15 10  1  6  0  0  0
 10 22  1  0  0  0  0
 10 23  1  0  0  0  0
 11 22  1  0  0  0  0
 11 25  1  0  0  0  0
 11 44  1  0  0  0  0
 12 13  1  0  0  0  0
 12 20  1  6  0  0  0
 12 26  1  0  0  0  0
 13 14  1  0  0  0  0
 13 27  1  0  0  0  0
 14 15  1  0  0  0  0
 14 28  1  0  0  0  0
 14 29  1  0  0  0  0
 15 30  1  0  0  0  0
 16 17  1  0  0  0  0
 16 18  1  0  0  0  0
 16 31  1  0  0  0  0
 17 32  1  0  0  0  0
 18 19  1  0  0  0  0
 18 33  1  0  0  0  0
 19 21  1  1  0  0  0
 19 34  1  0  0  0  0
 20 35  1  0  0  0  0
 20 36  1  0  0  0  0
 21 37  1  0  0  0  0
 21 38  1  0  0  0  0
 23 24  2  0  0  0  0
 23 42  1  0  0  0  0
 24 25  1  0  0  0  0
 24 45  1  0  0  0  0
M  END
> <PUBCHEM_COMPOUND_CID>
54029606

> <PUBCHEM_COMPOUND_CANONICALIZED>
1

> <PUBCHEM_CACTVS_COMPLEXITY>
556

> <PUBCHEM_CACTVS_HBOND_ACCEPTOR>
9

> <PUBCHEM_CACTVS_HBOND_DONOR>
5

> <PUBCHEM_CACTVS_ROTATABLE_BOND>
5

> <PUBCHEM_CACTVS_SUBSKEYS>
AAADceBzPAAAAAAAAAAAAAAAAAAAASJAAAAgAAAAAAAAAAAAAAAAHgAQCAAACBTxgAcBCAPABgCIACFWUACAAAAAAgAIAAAIAECREAIAgAAuQAAPFyIHAMDwMAoAAAAAAAAAAAAAAAAAAAAAAAAAAAAAAA==

> <PUBCHEM_IUPAC_OPENEYE_NAME>
1-[(2R,4S,5R)-5-[[(3S,4S,5R)-3,4-dihydroxy-5-(hydroxymethyl)tetrahydrofuran-2-yl]oxymethyl]-4-hydroxy-tetrahydrofuran-2-yl]pyrimidine-2,4-dione

> <PUBCHEM_IUPAC_CAS_NAME>
1-[(2R,4S,5R)-5-[[(3S,4S,5R)-3,4-dihydroxy-5-(hydroxymethyl)-2-oxolanyl]oxymethyl]-4-hydroxy-2-oxolanyl]pyrimidine-2,4-dione

> <PUBCHEM_IUPAC_NAME_MARKUP>
1-[(2<I>R</I>,4<I>S</I>,5<I>R</I>)-5-[[(3<I>S</I>,4<I>S</I>,5<I>R</I>)-3,4-dihydroxy-5-(hydroxymethyl)oxolan-2-yl]oxymethyl]-4-hydroxyoxolan-2-yl]pyrimidine-2,4-dione

> <PUBCHEM_IUPAC_NAME>
1-[(2R,4S,5R)-5-[[(3S,4S,5R)-3,4-dihydroxy-5-(hydroxymethyl)oxolan-2-yl]oxymethyl]-4-hydroxyoxolan-2-yl]pyrimidine-2,4-dione

> <PUBCHEM_IUPAC_SYSTEMATIC_NAME>
1-[(2R,4S,5R)-5-[[(3S,4S,5R)-5-(hydroxymethyl)-3,4-bis(oxidanyl)oxolan-2-yl]oxymethyl]-4-oxidanyl-oxolan-2-yl]pyrimidine-2,4-dione

> <PUBCHEM_IUPAC_TRADITIONAL_NAME>
1-[(2R,4S,5R)-5-[[(3S,4S,5R)-3,4-dihydroxy-5-methylol-tetrahydrofuran-2-yl]oxymethyl]-4-hydroxy-tetrahydrofuran-2-yl]pyrimidine-2,4-quinone

> <PUBCHEM_IUPAC_INCHI>
InChI=1S/C14H20N2O9/c17-4-7-11(20)12(21)13(25-7)23-5-8-6(18)3-10(24-8)16-2-1-9(19)15-14(16)22/h1-2,6-8,10-13,17-18,20-21H,3-5H2,(H,15,19,22)/t6-,7+,8+,10+,11+,12-,13?/m0/s1

> <PUBCHEM_IUPAC_INCHIKEY>
LEQNCXCZIPCAJW-LTWYQXBJSA-N

> <PUBCHEM_XLOGP3>
-3.1

> <PUBCHEM_EXACT_MASS>
360.11688022

> <PUBCHEM_MOLECULAR_FORMULA>
C14H20N2O9

> <PUBCHEM_MOLECULAR_WEIGHT>
360.32

> <PUBCHEM_OPENEYE_CAN_SMILES>
C1C(C(OC1N2C=CC(=O)NC2=O)COC3C(C(C(O3)CO)O)O)O

> <PUBCHEM_OPENEYE_ISO_SMILES>
C1[C@@H]([C@H](O[C@H]1N2C=CC(=O)NC2=O)COC3[C@H]([C@@H]([C@H](O3)CO)O)O)O

> <PUBCHEM_CACTVS_TPSA>
158

> <PUBCHEM_MONOISOTOPIC_WEIGHT>
360.11688022

> <PUBCHEM_TOTAL_CHARGE>
0

> <PUBCHEM_HEAVY_ATOM_COUNT>
25

> <PUBCHEM_ATOM_DEF_STEREO_COUNT>
6

> <PUBCHEM_ATOM_UDEF_STEREO_COUNT>
1

> <PUBCHEM_BOND_DEF_STEREO_COUNT>
0

> <PUBCHEM_BOND_UDEF_STEREO_COUNT>
0

> <PUBCHEM_ISOTOPIC_ATOM_COUNT>
0

> <PUBCHEM_COMPONENT_COUNT>
1

> <PUBCHEM_CACTVS_TAUTO_COUNT>
-1

> <PUBCHEM_COORDINATE_TYPE>
1
5
255

> <PUBCHEM_BONDANNOTATIONS>
15  10  6
10  22  8
10  23  8
11  22  8
11  25  8
12  20  6
19  21  5
23  24  8
24  25  8
17  3  3
13  4  5
16  5  5
18  6  6

$$$$
