 
  -OEChem-10192103592D

 76 80  0     0  0  0  0  0  0999 V2000
   10.3312   -4.9050    0.0000 O   0  0  0  0  0  0  0  0  0  0  0  0
   11.1972   -0.4050    0.0000 O   0  0  0  0  0  0  0  0  0  0  0  0
    6.8671   -6.9050    0.0000 O   0  0  0  0  0  0  0  0  0  0  0  0
   11.1972    3.5950    0.0000 O   0  0  0  0  0  0  0  0  0  0  0  0
    9.4651   -0.4050    0.0000 O   0  0  0  0  0  0  0  0  0  0  0  0
    6.0010   -5.4050    0.0000 O   0  0  0  0  0  0  0  0  0  0  0  0
    9.4651    3.5950    0.0000 O   0  0  0  0  0  0  0  0  0  0  0  0
    2.5369   -8.4050    0.0000 O   0  0  0  0  0  0  0  0  0  0  0  0
   10.3312    8.0950    0.0000 O   0  0  0  0  0  0  0  0  0  0  0  0
    9.4651   -6.4050    0.0000 C   0  0  0  0  0  0  0  0  0  0  0  0
    8.5991   -6.9050    0.0000 C   0  0  0  0  0  0  0  0  0  0  0  0
   12.0632    1.0950    0.0000 C   0  0  0  0  0  0  0  0  0  0  0  0
   12.0632    2.0950    0.0000 C   0  0  0  0  0  0  0  0  0  0  0  0
    9.4651   -5.4050    0.0000 C   0  0  0  0  0  0  0  0  0  0  0  0
    7.7331   -6.4050    0.0000 C   0  0  0  0  0  0  0  0  0  0  0  0
   11.1972    0.5950    0.0000 C   0  0  0  0  0  0  0  0  0  0  0  0
   10.3312   -6.9050    0.0000 C   0  0  0  0  0  0  0  0  0  0  0  0
   11.1972    2.5950    0.0000 C   0  0  0  0  0  0  0  0  0  0  0  0
    8.5991   -7.9050    0.0000 C   0  0  0  0  0  0  0  0  0  0  0  0
   12.9292    0.5950    0.0000 C   0  0  0  0  0  0  0  0  0  0  0  0
   12.9292    2.5950    0.0000 C   0  0  0  0  0  0  0  0  0  0  0  0
   10.3312   -3.9050    0.0000 C   0  0  0  0  0  0  0  0  0  0  0  0
   10.3312   -7.9050    0.0000 C   0  0  0  0  0  0  0  0  0  0  0  0
    9.4651   -8.4050    0.0000 C   0  0  0  0  0  0  0  0  0  0  0  0
   13.7953    1.0950    0.0000 C   0  0  0  0  0  0  0  0  0  0  0  0
   10.3312   -1.9050    0.0000 C   0  0  0  0  0  0  0  0  0  0  0  0
   13.7953    2.0950    0.0000 C   0  0  0  0  0  0  0  0  0  0  0  0
   11.1972   -3.4050    0.0000 C   0  0  0  0  0  0  0  0  0  0  0  0
    9.4651   -3.4050    0.0000 C   0  0  0  0  0  0  0  0  0  0  0  0
   11.1972   -2.4050    0.0000 C   0  0  0  0  0  0  0  0  0  0  0  0
    9.4651   -2.4050    0.0000 C   0  0  0  0  0  0  0  0  0  0  0  0
   10.3312   -0.9050    0.0000 C   0  0  0  0  0  0  0  0  0  0  0  0
    6.0010   -6.4050    0.0000 C   0  0  0  0  0  0  0  0  0  0  0  0
   10.3312    4.0950    0.0000 C   0  0  0  0  0  0  0  0  0  0  0  0
    5.1350   -6.9050    0.0000 C   0  0  0  0  0  0  0  0  0  0  0  0
   10.3312    5.0950    0.0000 C   0  0  0  0  0  0  0  0  0  0  0  0
    5.1350   -7.9050    0.0000 C   0  0  0  0  0  0  0  0  0  0  0  0
    4.2690   -6.4050    0.0000 C   0  0  0  0  0  0  0  0  0  0  0  0
   11.1972    5.5950    0.0000 C   0  0  0  0  0  0  0  0  0  0  0  0
    9.4651    5.5950    0.0000 C   0  0  0  0  0  0  0  0  0  0  0  0
    4.2690   -8.4050    0.0000 C   0  0  0  0  0  0  0  0  0  0  0  0
    3.4030   -6.9050    0.0000 C   0  0  0  0  0  0  0  0  0  0  0  0
   11.1972    6.5950    0.0000 C   0  0  0  0  0  0  0  0  0  0  0  0
    9.4651    6.5950    0.0000 C   0  0  0  0  0  0  0  0  0  0  0  0
    3.4030   -7.9050    0.0000 C   0  0  0  0  0  0  0  0  0  0  0  0
   10.3312    7.0950    0.0000 C   0  0  0  0  0  0  0  0  0  0  0  0
    9.2531   -4.8224    0.0000 H   0  0  0  0  0  0  0  0  0  0  0  0
    8.8546   -5.5127    0.0000 H   0  0  0  0  0  0  0  0  0  0  0  0
    8.1316   -5.9300    0.0000 H   0  0  0  0  0  0  0  0  0  0  0  0
    7.3346   -5.9300    0.0000 H   0  0  0  0  0  0  0  0  0  0  0  0
   10.9851    1.1776    0.0000 H   0  0  0  0  0  0  0  0  0  0  0  0
   10.5866    0.4873    0.0000 H   0  0  0  0  0  0  0  0  0  0  0  0
   10.8681   -6.5950    0.0000 H   0  0  0  0  0  0  0  0  0  0  0  0
   10.5866    2.7027    0.0000 H   0  0  0  0  0  0  0  0  0  0  0  0
   10.9851    2.0124    0.0000 H   0  0  0  0  0  0  0  0  0  0  0  0
    8.0622   -8.2150    0.0000 H   0  0  0  0  0  0  0  0  0  0  0  0
   12.9292   -0.0250    0.0000 H   0  0  0  0  0  0  0  0  0  0  0  0
   12.9292    3.2150    0.0000 H   0  0  0  0  0  0  0  0  0  0  0  0
   10.8681   -8.2150    0.0000 H   0  0  0  0  0  0  0  0  0  0  0  0
    9.4651   -9.0250    0.0000 H   0  0  0  0  0  0  0  0  0  0  0  0
   14.3322    0.7850    0.0000 H   0  0  0  0  0  0  0  0  0  0  0  0
   14.3322    2.4050    0.0000 H   0  0  0  0  0  0  0  0  0  0  0  0
   11.7341   -3.7150    0.0000 H   0  0  0  0  0  0  0  0  0  0  0  0
    8.9282   -3.7150    0.0000 H   0  0  0  0  0  0  0  0  0  0  0  0
   11.7341   -2.0950    0.0000 H   0  0  0  0  0  0  0  0  0  0  0  0
    8.9282   -2.0950    0.0000 H   0  0  0  0  0  0  0  0  0  0  0  0
    5.6720   -8.2150    0.0000 H   0  0  0  0  0  0  0  0  0  0  0  0
    4.2690   -5.7850    0.0000 H   0  0  0  0  0  0  0  0  0  0  0  0
   11.7341    5.2850    0.0000 H   0  0  0  0  0  0  0  0  0  0  0  0
    8.9282    5.2850    0.0000 H   0  0  0  0  0  0  0  0  0  0  0  0
    4.2690   -9.0250    0.0000 H   0  0  0  0  0  0  0  0  0  0  0  0
    2.8660   -6.5950    0.0000 H   0  0  0  0  0  0  0  0  0  0  0  0
   11.7341    6.9050    0.0000 H   0  0  0  0  0  0  0  0  0  0  0  0
    8.9282    6.9050    0.0000 H   0  0  0  0  0  0  0  0  0  0  0  0
    2.0000   -8.0950    0.0000 H   0  0  0  0  0  0  0  0  0  0  0  0
    9.7942    8.4050    0.0000 H   0  0  0  0  0  0  0  0  0  0  0  0
  1 14  1  0  0  0  0
  1 22  1  0  0  0  0
  2 16  1  0  0  0  0
  2 32  1  0  0  0  0
  3 15  1  0  0  0  0
  3 33  1  0  0  0  0
  4 18  1  0  0  0  0
  4 34  1  0  0  0  0
  5 32  2  0  0  0  0
  6 33  2  0  0  0  0
  7 34  2  0  0  0  0
  8 45  1  0  0  0  0
  8 75  1  0  0  0  0
  9 46  1  0  0  0  0
  9 76  1  0  0  0  0
 10 11  1  0  0  0  0
 10 14  1  0  0  0  0
 10 17  2  0  0  0  0
 11 15  1  0  0  0  0
 11 19  2  0  0  0  0
 12 13  1  0  0  0  0
 12 16  1  0  0  0  0
 12 20  2  0  0  0  0
 13 18  1  0  0  0  0
 13 21  2  0  0  0  0
 14 47  1  0  0  0  0
 14 48  1  0  0  0  0
 15 49  1  0  0  0  0
 15 50  1  0  0  0  0
 16 51  1  0  0  0  0
 16 52  1  0  0  0  0
 17 23  1  0  0  0  0
 17 53  1  0  0  0  0
 18 54  1  0  0  0  0
 18 55  1  0  0  0  0
 19 24  1  0  0  0  0
 19 56  1  0  0  0  0
 20 25  1  0  0  0  0
 20 57  1  0  0  0  0
 21 27  1  0  0  0  0
 21 58  1  0  0  0  0
 22 28  2  0  0  0  0
 22 29  1  0  0  0  0
 23 24  2  0  0  0  0
 23 59  1  0  0  0  0
 24 60  1  0  0  0  0
 25 27  2  0  0  0  0
 25 61  1  0  0  0  0
 26 30  2  0  0  0  0
 26 31  1  0  0  0  0
 26 32  1  0  0  0  0
 27 62  1  0  0  0  0
 28 30  1  0  0  0  0
 28 63  1  0  0  0  0
 29 31  2  0  0  0  0
 29 64  1  0  0  0  0
 30 65  1  0  0  0  0
 31 66  1  0  0  0  0
 33 35  1  0  0  0  0
 34 36  1  0  0  0  0
 35 37  2  0  0  0  0
 35 38  1  0  0  0  0
 36 39  2  0  0  0  0
 36 40  1  0  0  0  0
 37 41  1  0  0  0  0
 37 67  1  0  0  0  0
 38 42  2  0  0  0  0
 38 68  1  0  0  0  0
 39 43  1  0  0  0  0
 39 69  1  0  0  0  0
 40 44  2  0  0  0  0
 40 70  1  0  0  0  0
 41 45  2  0  0  0  0
 41 71  1  0  0  0  0
 42 45  1  0  0  0  0
 42 72  1  0  0  0  0
 43 46  2  0  0  0  0
 43 73  1  0  0  0  0
 44 46  1  0  0  0  0
 44 74  1  0  0  0  0
M  END
> <PUBCHEM_COMPOUND_CID>
57634567

> <PUBCHEM_COMPOUND_CANONICALIZED>
1

> <PUBCHEM_CACTVS_COMPLEXITY>
947

> <PUBCHEM_CACTVS_HBOND_ACCEPTOR>
9

> <PUBCHEM_CACTVS_HBOND_DONOR>
2

> <PUBCHEM_CACTVS_ROTATABLE_BOND>
15

> <PUBCHEM_CACTVS_SUBSKEYS>
AAADceB8PAAAAAAAAAAAAAAAAAAAAAAAAAAwYMGDAAAAAAABVAAAGgAACAAADASgmAIwDoAABgCIAiDSCAACCAAkIAAIiAEGCMgMJjKGNRqCeSCkwBEIuYfI7KzOoAAAAAAQAABAAAAAACAAAAAAAAAAAA==

> <PUBCHEM_IUPAC_OPENEYE_NAME>
[2-[[4-[[2-[(4-hydroxybenzoyl)oxymethyl]phenyl]methoxycarbonyl]phenoxy]methyl]phenyl]methyl 4-hydroxybenzoate

> <PUBCHEM_IUPAC_CAS_NAME>
4-hydroxybenzoic acid [2-[[4-[[2-[[(4-hydroxyphenyl)-oxomethoxy]methyl]phenyl]methoxy-oxomethyl]phenoxy]methyl]phenyl]methyl ester

> <PUBCHEM_IUPAC_NAME_MARKUP>
[2-[[4-[[2-[(4-hydroxybenzoyl)oxymethyl]phenyl]methoxycarbonyl]phenoxy]methyl]phenyl]methyl 4-hydroxybenzoate

> <PUBCHEM_IUPAC_NAME>
[2-[[4-[[2-[(4-hydroxybenzoyl)oxymethyl]phenyl]methoxycarbonyl]phenoxy]methyl]phenyl]methyl 4-hydroxybenzoate

> <PUBCHEM_IUPAC_SYSTEMATIC_NAME>
[2-[[4-[[2-[(4-hydroxyphenyl)carbonyloxymethyl]phenyl]methoxycarbonyl]phenoxy]methyl]phenyl]methyl 4-oxidanylbenzoate

> <PUBCHEM_IUPAC_TRADITIONAL_NAME>
4-hydroxybenzoic acid [2-[[4-[2-[(4-hydroxybenzoyl)oxymethyl]benzyl]oxycarbonylphenoxy]methyl]benzyl] ester

> <PUBCHEM_IUPAC_INCHI>
InChI=1S/C37H30O9/c38-32-15-9-25(10-16-32)35(40)44-22-29-6-2-1-5-28(29)21-43-34-19-13-27(14-20-34)37(42)46-24-31-8-4-3-7-30(31)23-45-36(41)26-11-17-33(39)18-12-26/h1-20,38-39H,21-24H2

> <PUBCHEM_IUPAC_INCHIKEY>
DEYDEACKHIHFFI-UHFFFAOYSA-N

> <PUBCHEM_XLOGP3_AA>
6.7

> <PUBCHEM_EXACT_MASS>
618.18898253

> <PUBCHEM_MOLECULAR_FORMULA>
C37H30O9

> <PUBCHEM_MOLECULAR_WEIGHT>
618.6

> <PUBCHEM_OPENEYE_CAN_SMILES>
C1=CC=C(C(=C1)COC2=CC=C(C=C2)C(=O)OCC3=CC=CC=C3COC(=O)C4=CC=C(C=C4)O)COC(=O)C5=CC=C(C=C5)O

> <PUBCHEM_OPENEYE_ISO_SMILES>
C1=CC=C(C(=C1)COC2=CC=C(C=C2)C(=O)OCC3=CC=CC=C3COC(=O)C4=CC=C(C=C4)O)COC(=O)C5=CC=C(C=C5)O

> <PUBCHEM_CACTVS_TPSA>
129

> <PUBCHEM_MONOISOTOPIC_WEIGHT>
618.18898253

> <PUBCHEM_TOTAL_CHARGE>
0

> <PUBCHEM_HEAVY_ATOM_COUNT>
46

> <PUBCHEM_ATOM_DEF_STEREO_COUNT>
0

> <PUBCHEM_ATOM_UDEF_STEREO_COUNT>
0

> <PUBCHEM_BOND_DEF_STEREO_COUNT>
0

> <PUBCHEM_BOND_UDEF_STEREO_COUNT>
0

> <PUBCHEM_ISOTOPIC_ATOM_COUNT>
0

> <PUBCHEM_COMPONENT_COUNT>
1

> <PUBCHEM_CACTVS_TAUTO_COUNT>
-1

> <PUBCHEM_COORDINATE_TYPE>
1
5
255

> <PUBCHEM_BONDANNOTATIONS>
10  11  8
10  17  8
11  19  8
12  13  8
12  20  8
13  21  8
17  23  8
19  24  8
20  25  8
21  27  8
22  28  8
22  29  8
23  24  8
25  27  8
26  30  8
26  31  8
28  30  8
29  31  8
35  37  8
35  38  8
36  39  8
36  40  8
37  41  8
38  42  8
39  43  8
40  44  8
41  45  8
42  45  8
43  46  8
44  46  8

$$$$
