 
  -OEChem-10192103542D

 66 68  0     1  0  0  0  0  0999 V2000
    7.7331   -0.0600    0.0000 O   0  0  0  0  0  0  0  0  0  0  0  0
    6.0010   -1.0600    0.0000 O   0  0  0  0  0  0  0  0  0  0  0  0
    6.0010    1.9400    0.0000 O   0  0  0  0  0  0  0  0  0  0  0  0
    8.5991    1.4400    0.0000 O   0  0  0  0  0  0  0  0  0  0  0  0
    5.1350   -2.5600    0.0000 O   0  0  0  0  0  0  0  0  0  0  0  0
    7.7331    1.9400    0.0000 O   0  0  0  0  0  0  0  0  0  0  0  0
    9.4651   -1.0600    0.0000 O   0  0  0  0  0  0  0  0  0  0  0  0
   11.1972   -0.0600    0.0000 O   0  0  0  0  0  0  0  0  0  0  0  0
   11.1972    1.9400    0.0000 O   0  0  0  0  0  0  0  0  0  0  0  0
    4.2690   -0.0600    0.0000 O   0  0  0  0  0  0  0  0  0  0  0  0
    2.5369   -3.0600    0.0000 O   0  0  0  0  0  0  0  0  0  0  0  0
    4.2690    2.9400    0.0000 O   0  0  0  0  0  0  0  0  0  0  0  0
    8.5991    3.4400    0.0000 O   0  0  0  0  0  0  0  0  0  0  0  0
    6.0010   -0.0600    0.0000 C   0  0  2  0  0  0  0  0  0  0  0  0
    6.8671    0.4400    0.0000 C   0  0  1  0  0  0  0  0  0  0  0  0
    5.1350    0.4400    0.0000 C   0  0  0  0  0  0  0  0  0  0  0  0
    6.8671    1.4400    0.0000 C   0  0  2  0  0  0  0  0  0  0  0  0
    5.1350    1.4400    0.0000 C   0  0  1  0  0  0  0  0  0  0  0  0
    8.5991    0.4400    0.0000 C   0  0  1  0  0  0  0  0  0  0  0  0
    9.4651   -0.0600    0.0000 C   0  0  1  0  0  0  0  0  0  0  0  0
    5.1350   -1.5600    0.0000 C   0  0  1  0  0  0  0  0  0  0  0  0
   10.3312    0.4400    0.0000 C   0  0  2  0  0  0  0  0  0  0  0  0
   10.3312    1.4400    0.0000 C   0  0  2  0  0  0  0  0  0  0  0  0
    9.4651    1.9400    0.0000 C   0  0  1  0  0  0  0  0  0  0  0  0
    4.2690   -1.0600    0.0000 C   0  0  1  0  0  0  0  0  0  0  0  0
    3.4030   -1.5600    0.0000 C   0  0  0  0  0  0  0  0  0  0  0  0
    3.4030   -2.5600    0.0000 C   0  0  2  0  0  0  0  0  0  0  0  0
    4.2690   -3.0600    0.0000 C   0  0  1  0  0  0  0  0  0  0  0  0
    4.2690    1.9400    0.0000 C   0  0  0  0  0  0  0  0  0  0  0  0
    9.4651    2.9400    0.0000 C   0  0  0  0  0  0  0  0  0  0  0  0
    4.2690   -4.0600    0.0000 C   0  0  0  0  0  0  0  0  0  0  0  0
    7.7331    2.9400    0.0000 C   0  0  0  0  0  0  0  0  0  0  0  0
    5.4641   -0.3700    0.0000 H   0  0  0  0  0  0  0  0  0  0  0  0
    6.8671   -0.1800    0.0000 H   0  0  0  0  0  0  0  0  0  0  0  0
    4.5244    0.5477    0.0000 H   0  0  0  0  0  0  0  0  0  0  0  0
    4.9230   -0.1426    0.0000 H   0  0  0  0  0  0  0  0  0  0  0  0
    7.4040    1.1300    0.0000 H   0  0  0  0  0  0  0  0  0  0  0  0
    5.1350    2.0600    0.0000 H   0  0  0  0  0  0  0  0  0  0  0  0
    8.5991   -0.1800    0.0000 H   0  0  0  0  0  0  0  0  0  0  0  0
   10.0021   -0.3700    0.0000 H   0  0  0  0  0  0  0  0  0  0  0  0
    5.1350   -0.9400    0.0000 H   0  0  0  0  0  0  0  0  0  0  0  0
   10.8681    0.7500    0.0000 H   0  0  0  0  0  0  0  0  0  0  0  0
   10.3312    2.0600    0.0000 H   0  0  0  0  0  0  0  0  0  0  0  0
    8.9282    2.2500    0.0000 H   0  0  0  0  0  0  0  0  0  0  0  0
    3.7320   -0.7500    0.0000 H   0  0  0  0  0  0  0  0  0  0  0  0
    3.1909   -0.9774    0.0000 H   0  0  0  0  0  0  0  0  0  0  0  0
    2.7924   -1.6677    0.0000 H   0  0  0  0  0  0  0  0  0  0  0  0
    3.4030   -3.1800    0.0000 H   0  0  0  0  0  0  0  0  0  0  0  0
    4.8059   -3.3700    0.0000 H   0  0  0  0  0  0  0  0  0  0  0  0
    3.6584    2.0477    0.0000 H   0  0  0  0  0  0  0  0  0  0  0  0
    4.0569    1.3574    0.0000 H   0  0  0  0  0  0  0  0  0  0  0  0
   10.0757    2.8323    0.0000 H   0  0  0  0  0  0  0  0  0  0  0  0
    9.6772    3.5226    0.0000 H   0  0  0  0  0  0  0  0  0  0  0  0
    3.6490   -4.0600    0.0000 H   0  0  0  0  0  0  0  0  0  0  0  0
    4.2690   -4.6800    0.0000 H   0  0  0  0  0  0  0  0  0  0  0  0
    4.8890   -4.0600    0.0000 H   0  0  0  0  0  0  0  0  0  0  0  0
   10.0021   -1.3700    0.0000 H   0  0  0  0  0  0  0  0  0  0  0  0
   11.7341    0.2500    0.0000 H   0  0  0  0  0  0  0  0  0  0  0  0
   11.1972    2.5600    0.0000 H   0  0  0  0  0  0  0  0  0  0  0  0
    3.7320    0.2500    0.0000 H   0  0  0  0  0  0  0  0  0  0  0  0
    2.0000   -2.7500    0.0000 H   0  0  0  0  0  0  0  0  0  0  0  0
    8.3531    2.9400    0.0000 H   0  0  0  0  0  0  0  0  0  0  0  0
    7.7331    3.5600    0.0000 H   0  0  0  0  0  0  0  0  0  0  0  0
    7.1131    2.9400    0.0000 H   0  0  0  0  0  0  0  0  0  0  0  0
    3.7320    3.2500    0.0000 H   0  0  0  0  0  0  0  0  0  0  0  0
    8.5991    4.0600    0.0000 H   0  0  0  0  0  0  0  0  0  0  0  0
 15  1  1  1  0  0  0
 19  1  1  1  0  0  0
 14  2  1  1  0  0  0
 21  2  1  1  0  0  0
  3 17  1  0  0  0  0
  3 18  1  0  0  0  0
  4 19  1  0  0  0  0
  4 24  1  0  0  0  0
  5 21  1  0  0  0  0
  5 28  1  0  0  0  0
 17  6  1  6  0  0  0
  6 32  1  0  0  0  0
 20  7  1  1  0  0  0
  7 57  1  0  0  0  0
 22  8  1  6  0  0  0
  8 58  1  0  0  0  0
 23  9  1  6  0  0  0
  9 59  1  0  0  0  0
 25 10  1  1  0  0  0
 10 60  1  0  0  0  0
 27 11  1  6  0  0  0
 11 61  1  0  0  0  0
 12 29  1  0  0  0  0
 12 65  1  0  0  0  0
 13 30  1  0  0  0  0
 13 66  1  0  0  0  0
 14 15  1  0  0  0  0
 14 16  1  0  0  0  0
 14 33  1  0  0  0  0
 15 17  1  0  0  0  0
 15 34  1  0  0  0  0
 16 18  1  0  0  0  0
 16 35  1  0  0  0  0
 16 36  1  0  0  0  0
 17 37  1  0  0  0  0
 18 29  1  1  0  0  0
 18 38  1  0  0  0  0
 19 20  1  0  0  0  0
 19 39  1  0  0  0  0
 20 22  1  0  0  0  0
 20 40  1  0  0  0  0
 21 25  1  0  0  0  0
 21 41  1  0  0  0  0
 22 23  1  0  0  0  0
 22 42  1  0  0  0  0
 23 24  1  0  0  0  0
 23 43  1  0  0  0  0
 24 30  1  6  0  0  0
 24 44  1  0  0  0  0
 25 26  1  0  0  0  0
 25 45  1  0  0  0  0
 26 27  1  0  0  0  0
 26 46  1  0  0  0  0
 26 47  1  0  0  0  0
 27 28  1  0  0  0  0
 27 48  1  0  0  0  0
 28 31  1  6  0  0  0
 28 49  1  0  0  0  0
 29 50  1  0  0  0  0
 29 51  1  0  0  0  0
 30 52  1  0  0  0  0
 30 53  1  0  0  0  0
 31 54  1  0  0  0  0
 31 55  1  0  0  0  0
 31 56  1  0  0  0  0
 32 62  1  0  0  0  0
 32 63  1  0  0  0  0
 32 64  1  0  0  0  0
M  END
> <PUBCHEM_COMPOUND_CID>
101017343

> <PUBCHEM_COMPOUND_CANONICALIZED>
1

> <PUBCHEM_CACTVS_COMPLEXITY>
581

> <PUBCHEM_CACTVS_HBOND_ACCEPTOR>
13

> <PUBCHEM_CACTVS_HBOND_DONOR>
7

> <PUBCHEM_CACTVS_ROTATABLE_BOND>
7

> <PUBCHEM_CACTVS_SUBSKEYS>
AAADcfB4PAAAAAAAAAAAAAAAAAAAAAAAAAAkSJAAAAAAAAAAAAAAGgAACAAACBSwgAMCCAAABgAAAAAAAAAAAAAAAAAAAAAAAAAREAIAAAAiQAAFAAAHAAHAYAwAAAAAAAAAAAAAAAAAAAAAAAAAAAAAAA==

> <PUBCHEM_IUPAC_OPENEYE_NAME>
(2R,3R,4S,5R,6R)-2-[(2S,3S,4S,6S)-4-[(2R,3R,5R,6R)-3,5-dihydroxy-6-methyl-tetrahydropyran-2-yl]oxy-6-(hydroxymethyl)-2-methoxy-tetrahydropyran-3-yl]oxy-6-(hydroxymethyl)tetrahydropyran-3,4,5-triol

> <PUBCHEM_IUPAC_CAS_NAME>
(2R,3R,4S,5R,6R)-2-[[(2S,3S,4S,6S)-4-[[(2R,3R,5R,6R)-3,5-dihydroxy-6-methyl-2-oxanyl]oxy]-6-(hydroxymethyl)-2-methoxy-3-oxanyl]oxy]-6-(hydroxymethyl)oxane-3,4,5-triol

> <PUBCHEM_IUPAC_NAME_MARKUP>
(2<I>R</I>,3<I>R</I>,4<I>S</I>,5<I>R</I>,6<I>R</I>)-2-[(2<I>S</I>,3<I>S</I>,4<I>S</I>,6<I>S</I>)-4-[(2<I>R</I>,3<I>R</I>,5<I>R</I>,6<I>R</I>)-3,5-dihydroxy-6-methyloxan-2-yl]oxy-6-(hydroxymethyl)-2-methoxyoxan-3-yl]oxy-6-(hydroxymethyl)oxane-3,4,5-triol

> <PUBCHEM_IUPAC_NAME>
(2R,3R,4S,5R,6R)-2-[(2S,3S,4S,6S)-4-[(2R,3R,5R,6R)-3,5-dihydroxy-6-methyloxan-2-yl]oxy-6-(hydroxymethyl)-2-methoxyoxan-3-yl]oxy-6-(hydroxymethyl)oxane-3,4,5-triol

> <PUBCHEM_IUPAC_SYSTEMATIC_NAME>
(2R,3R,4S,5R,6R)-2-(hydroxymethyl)-6-[(2S,3S,4S,6S)-6-(hydroxymethyl)-2-methoxy-4-[(2R,3R,5R,6R)-6-methyl-3,5-bis(oxidanyl)oxan-2-yl]oxy-oxan-3-yl]oxy-oxane-3,4,5-triol

> <PUBCHEM_IUPAC_TRADITIONAL_NAME>
(2R,3R,4S,5R,6R)-2-[(2S,3S,4S,6S)-4-[(2R,3R,5R,6R)-3,5-dihydroxy-6-methyl-tetrahydropyran-2-yl]oxy-2-methoxy-6-methylol-tetrahydropyran-3-yl]oxy-6-methylol-tetrahydropyran-3,4,5-triol

> <PUBCHEM_IUPAC_INCHI>
InChI=1S/C19H34O13/c1-7-9(22)4-10(23)17(28-7)30-11-3-8(5-20)29-19(27-2)16(11)32-18-15(26)14(25)13(24)12(6-21)31-18/h7-26H,3-6H2,1-2H3/t7-,8+,9-,10-,11+,12-,13+,14+,15-,16+,17-,18-,19+/m1/s1

> <PUBCHEM_IUPAC_INCHIKEY>
CBURDBYHEHCEJJ-ABLUPAAASA-N

> <PUBCHEM_XLOGP3_AA>
-3.3

> <PUBCHEM_EXACT_MASS>
470.19994113

> <PUBCHEM_MOLECULAR_FORMULA>
C19H34O13

> <PUBCHEM_MOLECULAR_WEIGHT>
470.5

> <PUBCHEM_OPENEYE_CAN_SMILES>
CC1C(CC(C(O1)OC2CC(OC(C2OC3C(C(C(C(O3)CO)O)O)O)OC)CO)O)O

> <PUBCHEM_OPENEYE_ISO_SMILES>
C[C@@H]1[C@@H](C[C@H]([C@H](O1)O[C@H]2C[C@H](O[C@@H]([C@H]2O[C@@H]3[C@@H]([C@H]([C@H]([C@H](O3)CO)O)O)O)OC)CO)O)O

> <PUBCHEM_CACTVS_TPSA>
197

> <PUBCHEM_MONOISOTOPIC_WEIGHT>
470.19994113

> <PUBCHEM_TOTAL_CHARGE>
0

> <PUBCHEM_HEAVY_ATOM_COUNT>
32

> <PUBCHEM_ATOM_DEF_STEREO_COUNT>
13

> <PUBCHEM_ATOM_UDEF_STEREO_COUNT>
0

> <PUBCHEM_BOND_DEF_STEREO_COUNT>
0

> <PUBCHEM_BOND_UDEF_STEREO_COUNT>
0

> <PUBCHEM_ISOTOPIC_ATOM_COUNT>
0

> <PUBCHEM_COMPONENT_COUNT>
1

> <PUBCHEM_CACTVS_TAUTO_COUNT>
-1

> <PUBCHEM_COORDINATE_TYPE>
1
5
255

> <PUBCHEM_BONDANNOTATIONS>
15  1  5
19  1  5
25  10  5
27  11  6
18  29  5
14  2  5
21  2  5
24  30  6
28  31  6
17  6  6
20  7  5
22  8  6
23  9  6

$$$$
