 
  -OEChem-10192103352D

 40 39  0     0  0  0  0  0  0999 V2000
   12.0632   -0.7500    0.0000 O   0  0  0  0  0  0  0  0  0  0  0  0
    2.5369    0.7500    0.0000 O   0  0  0  0  0  0  0  0  0  0  0  0
    3.4030   -0.7500    0.0000 O   0  0  0  0  0  0  0  0  0  0  0  0
   14.6613    0.7500    0.0000 O   0  0  0  0  0  0  0  0  0  0  0  0
   13.7953   -0.7500    0.0000 O   0  0  0  0  0  0  0  0  0  0  0  0
    7.7331    0.7500    0.0000 C   0  0  0  0  0  0  0  0  0  0  0  0
    8.5991    0.2500    0.0000 C   0  0  0  0  0  0  0  0  0  0  0  0
    6.8671    0.2500    0.0000 C   0  0  0  0  0  0  0  0  0  0  0  0
    9.4651    0.7500    0.0000 C   0  0  0  0  0  0  0  0  0  0  0  0
    6.0010    0.7500    0.0000 C   0  0  0  0  0  0  0  0  0  0  0  0
   10.3312    0.2500    0.0000 C   0  0  0  0  0  0  0  0  0  0  0  0
    5.1350    0.2500    0.0000 C   0  0  0  0  0  0  0  0  0  0  0  0
   11.1972    0.7500    0.0000 C   0  0  0  0  0  0  0  0  0  0  0  0
    4.2690    0.7500    0.0000 C   0  0  0  0  0  0  0  0  0  0  0  0
   12.0632    0.2500    0.0000 C   0  0  0  0  0  0  0  0  0  0  0  0
   12.9292    0.7500    0.0000 C   0  0  0  0  0  0  0  0  0  0  0  0
    3.4030    0.2500    0.0000 C   0  0  0  0  0  0  0  0  0  0  0  0
   13.7953    0.2500    0.0000 C   0  0  0  0  0  0  0  0  0  0  0  0
    8.1316    1.2250    0.0000 H   0  0  0  0  0  0  0  0  0  0  0  0
    7.3346    1.2250    0.0000 H   0  0  0  0  0  0  0  0  0  0  0  0
    8.2006   -0.2249    0.0000 H   0  0  0  0  0  0  0  0  0  0  0  0
    8.9976   -0.2249    0.0000 H   0  0  0  0  0  0  0  0  0  0  0  0
    6.4685   -0.2249    0.0000 H   0  0  0  0  0  0  0  0  0  0  0  0
    7.2656   -0.2249    0.0000 H   0  0  0  0  0  0  0  0  0  0  0  0
    9.8637    1.2250    0.0000 H   0  0  0  0  0  0  0  0  0  0  0  0
    9.0666    1.2250    0.0000 H   0  0  0  0  0  0  0  0  0  0  0  0
    6.3996    1.2250    0.0000 H   0  0  0  0  0  0  0  0  0  0  0  0
    5.6025    1.2250    0.0000 H   0  0  0  0  0  0  0  0  0  0  0  0
    9.9326   -0.2249    0.0000 H   0  0  0  0  0  0  0  0  0  0  0  0
   10.7297   -0.2249    0.0000 H   0  0  0  0  0  0  0  0  0  0  0  0
    4.7365   -0.2249    0.0000 H   0  0  0  0  0  0  0  0  0  0  0  0
    5.5335   -0.2249    0.0000 H   0  0  0  0  0  0  0  0  0  0  0  0
   11.5957    1.2250    0.0000 H   0  0  0  0  0  0  0  0  0  0  0  0
   10.7987    1.2250    0.0000 H   0  0  0  0  0  0  0  0  0  0  0  0
    4.6675    1.2250    0.0000 H   0  0  0  0  0  0  0  0  0  0  0  0
    3.8705    1.2250    0.0000 H   0  0  0  0  0  0  0  0  0  0  0  0
   13.3278    1.2250    0.0000 H   0  0  0  0  0  0  0  0  0  0  0  0
   12.5307    1.2250    0.0000 H   0  0  0  0  0  0  0  0  0  0  0  0
    2.0000    0.4400    0.0000 H   0  0  0  0  0  0  0  0  0  0  0  0
   15.1982    0.4400    0.0000 H   0  0  0  0  0  0  0  0  0  0  0  0
  1 15  2  0  0  0  0
  2 17  1  0  0  0  0
  2 39  1  0  0  0  0
  3 17  2  0  0  0  0
  4 18  1  0  0  0  0
  4 40  1  0  0  0  0
  5 18  2  0  0  0  0
  6  7  1  0  0  0  0
  6  8  1  0  0  0  0
  6 19  1  0  0  0  0
  6 20  1  0  0  0  0
  7  9  1  0  0  0  0
  7 21  1  0  0  0  0
  7 22  1  0  0  0  0
  8 10  1  0  0  0  0
  8 23  1  0  0  0  0
  8 24  1  0  0  0  0
  9 11  1  0  0  0  0
  9 25  1  0  0  0  0
  9 26  1  0  0  0  0
 10 12  1  0  0  0  0
 10 27  1  0  0  0  0
 10 28  1  0  0  0  0
 11 13  1  0  0  0  0
 11 29  1  0  0  0  0
 11 30  1  0  0  0  0
 12 14  1  0  0  0  0
 12 31  1  0  0  0  0
 12 32  1  0  0  0  0
 13 15  1  0  0  0  0
 13 33  1  0  0  0  0
 13 34  1  0  0  0  0
 14 17  1  0  0  0  0
 14 35  1  0  0  0  0
 14 36  1  0  0  0  0
 15 16  1  0  0  0  0
 16 18  1  0  0  0  0
 16 37  1  0  0  0  0
 16 38  1  0  0  0  0
M  END
> <PUBCHEM_COMPOUND_CID>
57037372

> <PUBCHEM_COMPOUND_CANONICALIZED>
1

> <PUBCHEM_CACTVS_COMPLEXITY>
273

> <PUBCHEM_CACTVS_HBOND_ACCEPTOR>
5

> <PUBCHEM_CACTVS_HBOND_DONOR>
2

> <PUBCHEM_CACTVS_ROTATABLE_BOND>
12

> <PUBCHEM_CACTVS_SUBSKEYS>
AAADceBwOAAAAAAAAAAAAAAAAAAAAAAAAAAAAAAAAAAAAAAAAAAAGgAACAAACASAgAAACAAAAgAIAICQCAAAAAAAAAAAAAEAAAAAABYIAAAAQAAEIAAAAAGIyKCAAAAAAAAAAAAAAAAAAAAAAAAAAAAAAA==

> <PUBCHEM_IUPAC_OPENEYE_NAME>
3-oxotridecanedioic acid

> <PUBCHEM_IUPAC_CAS_NAME>
3-oxotridecanedioic acid

> <PUBCHEM_IUPAC_NAME_MARKUP>
3-oxotridecanedioic acid

> <PUBCHEM_IUPAC_NAME>
3-oxotridecanedioic acid

> <PUBCHEM_IUPAC_SYSTEMATIC_NAME>
3-oxidanylidenetridecanedioic acid

> <PUBCHEM_IUPAC_TRADITIONAL_NAME>
3-ketobrassylic acid

> <PUBCHEM_IUPAC_INCHI>
InChI=1S/C13H22O5/c14-11(10-13(17)18)8-6-4-2-1-3-5-7-9-12(15)16/h1-10H2,(H,15,16)(H,17,18)

> <PUBCHEM_IUPAC_INCHIKEY>
JLCUTVVEBMIGQD-UHFFFAOYSA-N

> <PUBCHEM_XLOGP3_AA>
2.5

> <PUBCHEM_EXACT_MASS>
258.14672380

> <PUBCHEM_MOLECULAR_FORMULA>
C13H22O5

> <PUBCHEM_MOLECULAR_WEIGHT>
258.31

> <PUBCHEM_OPENEYE_CAN_SMILES>
C(CCCCC(=O)CC(=O)O)CCCCC(=O)O

> <PUBCHEM_OPENEYE_ISO_SMILES>
C(CCCCC(=O)CC(=O)O)CCCCC(=O)O

> <PUBCHEM_CACTVS_TPSA>
91.7

> <PUBCHEM_MONOISOTOPIC_WEIGHT>
258.14672380

> <PUBCHEM_TOTAL_CHARGE>
0

> <PUBCHEM_HEAVY_ATOM_COUNT>
18

> <PUBCHEM_ATOM_DEF_STEREO_COUNT>
0

> <PUBCHEM_ATOM_UDEF_STEREO_COUNT>
0

> <PUBCHEM_BOND_DEF_STEREO_COUNT>
0

> <PUBCHEM_BOND_UDEF_STEREO_COUNT>
0

> <PUBCHEM_ISOTOPIC_ATOM_COUNT>
0

> <PUBCHEM_COMPONENT_COUNT>
1

> <PUBCHEM_CACTVS_TAUTO_COUNT>
-1

> <PUBCHEM_COORDINATE_TYPE>
1
5
255

$$$$
