 
  -OEChem-10192103262D

 58 60  0     1  0  0  0  0  0999 V2000
    7.2857   -1.9390    0.0000 O   0  0  0  0  0  0  0  0  0  0  0  0
    2.3038   -2.8570    0.0000 O   0  0  0  0  0  0  0  0  0  0  0  0
    3.8137   -3.7056    0.0000 O   0  0  0  0  0  0  0  0  0  0  0  0
    7.3444    2.8415    0.0000 O   0  0  0  0  0  0  0  0  0  0  0  0
    8.8410    1.9697    0.0000 O   0  0  0  0  0  0  0  0  0  0  0  0
    4.6876   -0.4390    0.0000 C   0  0  1  0  0  0  0  0  0  0  0  0
    5.5536    0.0610    0.0000 C   0  0  1  0  0  0  0  0  0  0  0  0
    4.6876   -1.4390    0.0000 C   0  0  1  0  0  0  0  0  0  0  0  0
    6.4196   -0.4390    0.0000 C   0  0  2  0  0  0  0  0  0  0  0  0
    3.7937   -1.9736    0.0000 C   0  0  2  0  0  0  0  0  0  0  0  0
    5.5536   -1.9390    0.0000 C   0  0  0  0  0  0  0  0  0  0  0  0
    6.4196   -1.4390    0.0000 C   0  0  0  0  0  0  0  0  0  0  0  0
    3.7937    0.0957    0.0000 C   0  0  0  0  0  0  0  0  0  0  0  0
    5.5376    1.1025    0.0000 C   0  0  0  0  0  0  0  0  0  0  0  0
    7.3296    0.0679    0.0000 C   0  0  0  0  0  0  0  0  0  0  0  0
    7.3377    1.1095    0.0000 C   0  0  1  0  0  0  0  0  0  0  0  0
    2.8876   -1.4598    0.0000 C   0  0  0  0  0  0  0  0  0  0  0  0
    6.4356    1.6303    0.0000 C   0  0  0  0  0  0  0  0  0  0  0  0
    4.6876    0.5610    0.0000 C   0  0  0  0  0  0  0  0  0  0  0  0
    2.8876   -0.4182    0.0000 C   0  0  0  0  0  0  0  0  0  0  0  0
    7.2857   -0.9390    0.0000 C   0  0  0  0  0  0  0  0  0  0  0  0
    4.3036   -2.8338    0.0000 C   0  0  0  0  0  0  0  0  0  0  0  0
    3.3037   -2.8454    0.0000 C   0  0  0  0  0  0  0  0  0  0  0  0
    8.3377    1.1056    0.0000 C   0  0  0  0  0  0  0  0  0  0  0  0
    7.8410    1.9736    0.0000 C   0  0  0  0  0  0  0  0  0  0  0  0
    7.8477    3.7056    0.0000 C   0  0  0  0  0  0  0  0  0  0  0  0
    6.2864    0.4917    0.0000 H   0  0  0  0  0  0  0  0  0  0  0  0
    4.6941   -2.2890    0.0000 H   0  0  0  0  0  0  0  0  0  0  0  0
    5.1551   -2.4139    0.0000 H   0  0  0  0  0  0  0  0  0  0  0  0
    5.9521   -2.4139    0.0000 H   0  0  0  0  0  0  0  0  0  0  0  0
    6.6317   -2.0216    0.0000 H   0  0  0  0  0  0  0  0  0  0  0  0
    7.0302   -1.3313    0.0000 H   0  0  0  0  0  0  0  0  0  0  0  0
    4.1982    0.5655    0.0000 H   0  0  0  0  0  0  0  0  0  0  0  0
    3.4000    0.5747    0.0000 H   0  0  0  0  0  0  0  0  0  0  0  0
    5.3195    1.6829    0.0000 H   0  0  0  0  0  0  0  0  0  0  0  0
    4.9284    0.9870    0.0000 H   0  0  0  0  0  0  0  0  0  0  0  0
    7.5342   -0.5174    0.0000 H   0  0  0  0  0  0  0  0  0  0  0  0
    7.9413    0.1692    0.0000 H   0  0  0  0  0  0  0  0  0  0  0  0
    2.2767   -1.3537    0.0000 H   0  0  0  0  0  0  0  0  0  0  0  0
    2.6785   -2.0435    0.0000 H   0  0  0  0  0  0  0  0  0  0  0  0
    6.8329    2.1062    0.0000 H   0  0  0  0  0  0  0  0  0  0  0  0
    6.0346    2.1032    0.0000 H   0  0  0  0  0  0  0  0  0  0  0  0
    5.3076    0.5610    0.0000 H   0  0  0  0  0  0  0  0  0  0  0  0
    4.6876    1.1810    0.0000 H   0  0  0  0  0  0  0  0  0  0  0  0
    4.0676    0.5610    0.0000 H   0  0  0  0  0  0  0  0  0  0  0  0
    2.6785    0.1655    0.0000 H   0  0  0  0  0  0  0  0  0  0  0  0
    2.2767   -0.5243    0.0000 H   0  0  0  0  0  0  0  0  0  0  0  0
    7.8226   -0.6290    0.0000 H   0  0  0  0  0  0  0  0  0  0  0  0
    3.7703   -3.1500    0.0000 H   0  0  0  0  0  0  0  0  0  0  0  0
    4.6198   -3.3672    0.0000 H   0  0  0  0  0  0  0  0  0  0  0  0
    4.8370   -2.5176    0.0000 H   0  0  0  0  0  0  0  0  0  0  0  0
    8.3353    0.4856    0.0000 H   0  0  0  0  0  0  0  0  0  0  0  0
    8.9577    1.1032    0.0000 H   0  0  0  0  0  0  0  0  0  0  0  0
    8.3401    1.7256    0.0000 H   0  0  0  0  0  0  0  0  0  0  0  0
    2.0000   -3.3974    0.0000 H   0  0  0  0  0  0  0  0  0  0  0  0
    8.3834    3.3935    0.0000 H   0  0  0  0  0  0  0  0  0  0  0  0
    8.1598    4.2413    0.0000 H   0  0  0  0  0  0  0  0  0  0  0  0
    7.3120    4.0176    0.0000 H   0  0  0  0  0  0  0  0  0  0  0  0
  1 21  2  0  0  0  0
  2 23  1  0  0  0  0
  2 55  1  0  0  0  0
  3 23  2  0  0  0  0
  4 25  1  0  0  0  0
  4 26  1  0  0  0  0
  5 25  2  0  0  0  0
  6  7  1  0  0  0  0
  6  8  1  0  0  0  0
  6 13  1  0  0  0  0
  6 19  1  6  0  0  0
  7  9  1  0  0  0  0
  7 14  1  0  0  0  0
  7 27  1  1  0  0  0
  8 10  1  0  0  0  0
  8 11  1  0  0  0  0
  8 28  1  1  0  0  0
  9 12  1  0  0  0  0
  9 15  1  0  0  0  0
  9 21  1  6  0  0  0
 10 17  1  0  0  0  0
 10 22  1  1  0  0  0
 10 23  1  0  0  0  0
 11 12  1  0  0  0  0
 11 29  1  0  0  0  0
 11 30  1  0  0  0  0
 12 31  1  0  0  0  0
 12 32  1  0  0  0  0
 13 20  1  0  0  0  0
 13 33  1  0  0  0  0
 13 34  1  0  0  0  0
 14 18  1  0  0  0  0
 14 35  1  0  0  0  0
 14 36  1  0  0  0  0
 15 16  1  0  0  0  0
 15 37  1  0  0  0  0
 15 38  1  0  0  0  0
 16 18  1  0  0  0  0
 16 24  1  1  0  0  0
 16 25  1  0  0  0  0
 17 20  1  0  0  0  0
 17 39  1  0  0  0  0
 17 40  1  0  0  0  0
 18 41  1  0  0  0  0
 18 42  1  0  0  0  0
 19 43  1  0  0  0  0
 19 44  1  0  0  0  0
 19 45  1  0  0  0  0
 20 46  1  0  0  0  0
 20 47  1  0  0  0  0
 21 48  1  0  0  0  0
 22 49  1  0  0  0  0
 22 50  1  0  0  0  0
 22 51  1  0  0  0  0
 24 52  1  0  0  0  0
 24 53  1  0  0  0  0
 24 54  1  0  0  0  0
 26 56  1  0  0  0  0
 26 57  1  0  0  0  0
 26 58  1  0  0  0  0
M  END
> <PUBCHEM_COMPOUND_CID>
24862168

> <PUBCHEM_COMPOUND_CANONICALIZED>
1

> <PUBCHEM_CACTVS_COMPLEXITY>
630

> <PUBCHEM_CACTVS_HBOND_ACCEPTOR>
5

> <PUBCHEM_CACTVS_HBOND_DONOR>
1

> <PUBCHEM_CACTVS_ROTATABLE_BOND>
4

> <PUBCHEM_CACTVS_SUBSKEYS>
AAADcfB4OAAAAAAAAAAAAAAAAAAAAAAAAAAwYMAAAAAAAADAAAAAGgAACAAADwCggAICCAAABgAIAAiQiAAAAAAAAAAAAAEAAAAAABIAAAAAQAAEAAAAAAGIzvCPgAAAAAAAAACAAAQAACAAAAAAAAAAAA==

> <PUBCHEM_IUPAC_OPENEYE_NAME>
(1R,4aS,4bS,7S,8aS,10aS)-8a-formyl-7-methoxycarbonyl-1,4a,7-trimethyl-2,3,4,4b,5,6,8,9,10,10a-decahydrophenanthrene-1-carboxylic acid

> <PUBCHEM_IUPAC_CAS_NAME>
(1R,4aS,4bS,7S,8aS,10aS)-8a-formyl-7-methoxycarbonyl-1,4a,7-trimethyl-2,3,4,4b,5,6,8,9,10,10a-decahydrophenanthrene-1-carboxylic acid

> <PUBCHEM_IUPAC_NAME_MARKUP>
(1<I>R</I>,4<I>a</I><I>S</I>,4<I>b</I><I>S</I>,7<I>S</I>,8<I>a</I><I>S</I>,10<I>a</I><I>S</I>)-8<I>a</I>-formyl-7-methoxycarbonyl-1,4<I>a</I>,7-trimethyl-2,3,4,4<I>b</I>,5,6,8,9,10,10<I>a</I>-decahydrophenanthrene-1-carboxylic acid

> <PUBCHEM_IUPAC_NAME>
(1R,4aS,4bS,7S,8aS,10aS)-8a-formyl-7-methoxycarbonyl-1,4a,7-trimethyl-2,3,4,4b,5,6,8,9,10,10a-decahydrophenanthrene-1-carboxylic acid

> <PUBCHEM_IUPAC_SYSTEMATIC_NAME>
(1R,4aS,4bS,7S,8aS,10aS)-8a-methanoyl-7-methoxycarbonyl-1,4a,7-trimethyl-2,3,4,4b,5,6,8,9,10,10a-decahydrophenanthrene-1-carboxylic acid

> <PUBCHEM_IUPAC_TRADITIONAL_NAME>
(1R,4aS,4bS,7S,8aS,10aS)-7-carbomethoxy-8a-formyl-1,4a,7-trimethyl-2,3,4,4b,5,6,8,9,10,10a-decahydrophenanthrene-1-carboxylic acid

> <PUBCHEM_IUPAC_INCHI>
InChI=1S/C21H32O5/c1-18(17(25)26-4)10-6-15-19(2)8-5-9-20(3,16(23)24)14(19)7-11-21(15,12-18)13-22/h13-15H,5-12H2,1-4H3,(H,23,24)/t14-,15-,18-,19+,20+,21+/m0/s1

> <PUBCHEM_IUPAC_INCHIKEY>
KQWVDSAWYJGJQI-KIOJNPINSA-N

> <PUBCHEM_XLOGP3_AA>
3.7

> <PUBCHEM_EXACT_MASS>
364.22497412

> <PUBCHEM_MOLECULAR_FORMULA>
C21H32O5

> <PUBCHEM_MOLECULAR_WEIGHT>
364.5

> <PUBCHEM_OPENEYE_CAN_SMILES>
CC1(CCC2C3(CCCC(C3CCC2(C1)C=O)(C)C(=O)O)C)C(=O)OC

> <PUBCHEM_OPENEYE_ISO_SMILES>
C[C@@]1(CC[C@H]2[C@@]3(CCC[C@@]([C@H]3CC[C@@]2(C1)C=O)(C)C(=O)O)C)C(=O)OC

> <PUBCHEM_CACTVS_TPSA>
80.7

> <PUBCHEM_MONOISOTOPIC_WEIGHT>
364.22497412

> <PUBCHEM_TOTAL_CHARGE>
0

> <PUBCHEM_HEAVY_ATOM_COUNT>
26

> <PUBCHEM_ATOM_DEF_STEREO_COUNT>
6

> <PUBCHEM_ATOM_UDEF_STEREO_COUNT>
0

> <PUBCHEM_BOND_DEF_STEREO_COUNT>
0

> <PUBCHEM_BOND_UDEF_STEREO_COUNT>
0

> <PUBCHEM_ISOTOPIC_ATOM_COUNT>
0

> <PUBCHEM_COMPONENT_COUNT>
1

> <PUBCHEM_CACTVS_TAUTO_COUNT>
-1

> <PUBCHEM_COORDINATE_TYPE>
1
5
255

> <PUBCHEM_BONDANNOTATIONS>
10  22  5
16  24  5
6  19  6
7  27  5
8  28  5
9  21  6

$$$$
