 
  -OEChem-10192104222D

 29 28  0     1  0  0  0  0  0999 V2000
    4.5981   -1.0670    0.0000 S   0  0  0  0  0  0  0  0  0  0  0  0
    4.5981    0.9330    0.0000 P   0  3  0  0  0  0  0  0  0  0  0  0
    5.4641   -0.5670    0.0000 O   0  0  0  0  0  0  0  0  0  0  0  0
    3.7320    0.4330    0.0000 O   0  0  0  0  0  0  0  0  0  0  0  0
    7.1962    0.4330    0.0000 O   0  0  0  0  0  0  0  0  0  0  0  0
    5.0981   -1.9330    0.0000 O   0  0  0  0  0  0  0  0  0  0  0  0
    4.0981   -0.2010    0.0000 O   0  0  0  0  0  0  0  0  0  0  0  0
    4.5981    1.9330    0.0000 O   0  0  0  0  0  0  0  0  0  0  0  0
    6.3301    1.9330    0.0000 O   0  0  0  0  0  0  0  0  0  0  0  0
    5.4641    0.4330    0.0000 C   0  0  3  0  0  0  0  0  0  0  0  0
    6.3301    0.9330    0.0000 C   0  0  0  0  0  0  0  0  0  0  0  0
    3.7320   -1.5670    0.0000 C   0  0  0  0  0  0  0  0  0  0  0  0
    2.8660    0.9330    0.0000 C   0  0  0  0  0  0  0  0  0  0  0  0
    2.0000    0.4330    0.0000 C   0  0  0  0  0  0  0  0  0  0  0  0
    8.0622    0.9330    0.0000 C   0  0  0  0  0  0  0  0  0  0  0  0
    8.9282    0.4330    0.0000 C   0  0  0  0  0  0  0  0  0  0  0  0
    9.7942   -0.0670    0.0000 C   0  0  0  0  0  0  0  0  0  0  0  0
    6.0010    0.1230    0.0000 H   0  0  0  0  0  0  0  0  0  0  0  0
    3.4220   -1.0300    0.0000 H   0  0  0  0  0  0  0  0  0  0  0  0
    3.1951   -1.8770    0.0000 H   0  0  0  0  0  0  0  0  0  0  0  0
    4.0420   -2.1039    0.0000 H   0  0  0  0  0  0  0  0  0  0  0  0
    3.2646    1.4080    0.0000 H   0  0  0  0  0  0  0  0  0  0  0  0
    2.4675    1.4080    0.0000 H   0  0  0  0  0  0  0  0  0  0  0  0
    1.6900    0.9699    0.0000 H   0  0  0  0  0  0  0  0  0  0  0  0
    1.4631    0.1230    0.0000 H   0  0  0  0  0  0  0  0  0  0  0  0
    2.3100   -0.1039    0.0000 H   0  0  0  0  0  0  0  0  0  0  0  0
    8.4607    1.4080    0.0000 H   0  0  0  0  0  0  0  0  0  0  0  0
    7.6636    1.4080    0.0000 H   0  0  0  0  0  0  0  0  0  0  0  0
   10.3312   -0.3770    0.0000 H   0  0  0  0  0  0  0  0  0  0  0  0
  1  3  1  0  0  0  0
  1  6  2  0  0  0  0
  1  7  2  0  0  0  0
  1 12  1  0  0  0  0
  2  4  1  0  0  0  0
  2  8  2  0  0  0  0
  2 10  1  0  0  0  0
  3 10  1  0  0  0  0
  4 13  1  0  0  0  0
  5 11  1  0  0  0  0
  5 15  1  0  0  0  0
  9 11  2  0  0  0  0
 10 11  1  0  0  0  0
 10 18  1  0  0  0  0
 12 19  1  0  0  0  0
 12 20  1  0  0  0  0
 12 21  1  0  0  0  0
 13 14  1  0  0  0  0
 13 22  1  0  0  0  0
 13 23  1  0  0  0  0
 14 24  1  0  0  0  0
 14 25  1  0  0  0  0
 14 26  1  0  0  0  0
 15 16  1  0  0  0  0
 15 27  1  0  0  0  0
 15 28  1  0  0  0  0
 16 17  3  0  0  0  0
 17 29  1  0  0  0  0
M  CHG  1   2   1
M  END
> <PUBCHEM_COMPOUND_CID>
130464145

> <PUBCHEM_COMPOUND_CANONICALIZED>
1

> <PUBCHEM_CACTVS_COMPLEXITY>
427

> <PUBCHEM_CACTVS_HBOND_ACCEPTOR>
7

> <PUBCHEM_CACTVS_HBOND_DONOR>
0

> <PUBCHEM_CACTVS_ROTATABLE_BOND>
8

> <PUBCHEM_CACTVS_SUBSKEYS>
AAADccBwOAJAAAAAAAAAAAAAAAAAAAAAAAAAAAAAAAAAAAAAAAAAGgwAACAACACogAKCCAAABRJIWACQCPIAAAAAAAAAAABAAAABAAAAAAACAAAAAAACAAAAAAAAAAAAAAAAAAAAAAAAAAAAAAAAAAAAAA==

> <PUBCHEM_IUPAC_OPENEYE_NAME>
ethoxy-(1-methylsulfonyloxy-2-oxo-2-prop-2-ynoxy-ethyl)-oxo-phosphonium

> <PUBCHEM_IUPAC_CAS_NAME>
ethoxy-(1-methylsulfonyloxy-2-oxo-2-prop-2-ynoxyethyl)-oxophosphonium

> <PUBCHEM_IUPAC_NAME_MARKUP>
ethoxy-(1-methylsulfonyloxy-2-oxo-2-prop-2-ynoxyethyl)-oxophosphanium

> <PUBCHEM_IUPAC_NAME>
ethoxy-(1-methylsulfonyloxy-2-oxo-2-prop-2-ynoxyethyl)-oxophosphanium

> <PUBCHEM_IUPAC_SYSTEMATIC_NAME>
ethoxy-(1-methylsulfonyloxy-2-oxidanylidene-2-prop-2-ynoxy-ethyl)-oxidanylidene-phosphanium

> <PUBCHEM_IUPAC_TRADITIONAL_NAME>
ethoxy-keto-(2-keto-1-methylsulfonyloxy-2-propargyloxy-ethyl)phosphonium

> <PUBCHEM_IUPAC_INCHI>
InChI=1S/C8H12O7PS/c1-4-6-13-7(9)8(15-17(3,11)12)16(10)14-5-2/h1,8H,5-6H2,2-3H3/q+1

> <PUBCHEM_IUPAC_INCHIKEY>
XYYGVKHENDTTNI-UHFFFAOYSA-N

> <PUBCHEM_XLOGP3_AA>
-0.4

> <PUBCHEM_EXACT_MASS>
283.00413589

> <PUBCHEM_MOLECULAR_FORMULA>
C8H12O7PS+

> <PUBCHEM_MOLECULAR_WEIGHT>
283.22

> <PUBCHEM_OPENEYE_CAN_SMILES>
CCO[P+](=O)C(C(=O)OCC#C)OS(=O)(=O)C

> <PUBCHEM_OPENEYE_ISO_SMILES>
CCO[P+](=O)C(C(=O)OCC#C)OS(=O)(=O)C

> <PUBCHEM_CACTVS_TPSA>
104

> <PUBCHEM_MONOISOTOPIC_WEIGHT>
283.00413589

> <PUBCHEM_TOTAL_CHARGE>
1

> <PUBCHEM_HEAVY_ATOM_COUNT>
17

> <PUBCHEM_ATOM_DEF_STEREO_COUNT>
0

> <PUBCHEM_ATOM_UDEF_STEREO_COUNT>
1

> <PUBCHEM_BOND_DEF_STEREO_COUNT>
0

> <PUBCHEM_BOND_UDEF_STEREO_COUNT>
0

> <PUBCHEM_ISOTOPIC_ATOM_COUNT>
0

> <PUBCHEM_COMPONENT_COUNT>
1

> <PUBCHEM_CACTVS_TAUTO_COUNT>
-1

> <PUBCHEM_COORDINATE_TYPE>
1
5
255

> <PUBCHEM_BONDANNOTATIONS>
10  11  3

$$$$
