 
  -OEChem-10192104382D

 88 91  0     1  0  0  0  0  0999 V2000
    7.6849   -0.2735    0.0000 O   0  0  0  0  0  0  0  0  0  0  0  0
    7.6849    2.7265    0.0000 O   0  0  0  0  0  0  0  0  0  0  0  0
    5.9529   -0.2735    0.0000 O   0  0  0  0  0  0  0  0  0  0  0  0
    9.4170    2.7265    0.0000 O   0  0  0  0  0  0  0  0  0  0  0  0
    4.2208   -2.2735    0.0000 O   0  0  0  0  0  0  0  0  0  0  0  0
    5.0298   -3.8613    0.0000 O   0  0  0  0  0  0  0  0  0  0  0  0
    5.9529    0.7265    0.0000 O   0  0  0  0  0  0  0  0  0  0  0  0
    5.9529   -3.2735    0.0000 O   0  0  0  0  0  0  0  0  0  0  0  0
    7.6849   -2.2735    0.0000 O   0  0  0  0  0  0  0  0  0  0  0  0
   10.2830    5.2265    0.0000 O   0  0  0  0  0  0  0  0  0  0  0  0
    2.4608   -3.5523    0.0000 O   0  0  0  0  0  0  0  0  0  0  0  0
    7.6849    3.7265    0.0000 O   0  0  0  0  0  0  0  0  0  0  0  0
    3.1330   -5.6214    0.0000 O   0  0  0  0  0  0  0  0  0  0  0  0
    5.9529    3.7265    0.0000 O   0  0  0  0  0  0  0  0  0  0  0  0
    4.2208    0.7265    0.0000 O   0  0  0  0  0  0  0  0  0  0  0  0
    7.6849    5.7265    0.0000 O   0  0  0  0  0  0  0  0  0  0  0  0
    9.4170    6.7265    0.0000 O   0  0  0  0  0  0  0  0  0  0  0  0
    4.9019   -6.5349    0.0000 O   0  0  0  0  0  0  0  0  0  0  0  0
   10.2830    2.2265    0.0000 O   0  0  0  0  0  0  0  0  0  0  0  0
   12.0151    4.2265    0.0000 O   0  0  0  0  0  0  0  0  0  0  0  0
   11.1490    2.7265    0.0000 O   0  0  0  0  0  0  0  0  0  0  0  0
    9.4170    0.7265    0.0000 N   0  0  0  0  0  0  0  0  0  0  0  0
    7.6849    0.7265    0.0000 C   0  0  2  0  0  0  0  0  0  0  0  0
    8.5510    1.2265    0.0000 C   0  0  2  0  0  0  0  0  0  0  0  0
    6.8189    1.2265    0.0000 C   0  0  1  0  0  0  0  0  0  0  0  0
    8.5510    2.2265    0.0000 C   0  0  2  0  0  0  0  0  0  0  0  0
    5.0868   -1.7735    0.0000 C   0  0  2  0  0  0  0  0  0  0  0  0
    6.8189   -0.7735    0.0000 C   0  0  2  0  0  0  0  0  0  0  0  0
    5.9529   -2.2735    0.0000 C   0  0  1  0  0  0  0  0  0  0  0  0
    6.8189   -1.7735    0.0000 C   0  0  1  0  0  0  0  0  0  0  0  0
    6.8189    2.2265    0.0000 C   0  0  1  0  0  0  0  0  0  0  0  0
    5.0868   -0.7735    0.0000 C   0  0  1  0  0  0  0  0  0  0  0  0
    9.4170    3.7265    0.0000 C   0  0  2  0  0  0  0  0  0  0  0  0
    4.2208   -3.2735    0.0000 C   0  0  2  0  0  0  0  0  0  0  0  0
    3.4118   -3.8613    0.0000 C   0  0  1  0  0  0  0  0  0  0  0  0
    8.5510    4.2265    0.0000 C   0  0  1  0  0  0  0  0  0  0  0  0
    3.7208   -4.8123    0.0000 C   0  0  1  0  0  0  0  0  0  0  0  0
    5.9529    2.7265    0.0000 C   0  0  0  0  0  0  0  0  0  0  0  0
    4.7208   -4.8123    0.0000 C   0  0  1  0  0  0  0  0  0  0  0  0
   10.2830    4.2265    0.0000 C   0  0  1  0  0  0  0  0  0  0  0  0
    4.2208   -0.2735    0.0000 C   0  0  0  0  0  0  0  0  0  0  0  0
    8.5510    5.2265    0.0000 C   0  0  2  0  0  0  0  0  0  0  0  0
    9.4170    5.7265    0.0000 C   0  0  2  0  0  0  0  0  0  0  0  0
    5.3086   -5.6214    0.0000 C   0  0  0  0  0  0  0  0  0  0  0  0
   10.2830    1.2265    0.0000 C   0  0  0  0  0  0  0  0  0  0  0  0
   11.1490    3.7265    0.0000 C   0  0  0  0  0  0  0  0  0  0  0  0
   11.1490    0.7265    0.0000 C   0  0  0  0  0  0  0  0  0  0  0  0
    8.2219    0.4165    0.0000 H   0  0  0  0  0  0  0  0  0  0  0  0
    9.0879    1.5365    0.0000 H   0  0  0  0  0  0  0  0  0  0  0  0
    6.2820    1.5365    0.0000 H   0  0  0  0  0  0  0  0  0  0  0  0
    5.0868   -2.3935    0.0000 H   0  0  0  0  0  0  0  0  0  0  0  0
    8.5510    2.8465    0.0000 H   0  0  0  0  0  0  0  0  0  0  0  0
    6.8189   -0.1535    0.0000 H   0  0  0  0  0  0  0  0  0  0  0  0
    5.4159   -2.5835    0.0000 H   0  0  0  0  0  0  0  0  0  0  0  0
    6.8189   -2.3935    0.0000 H   0  0  0  0  0  0  0  0  0  0  0  0
    6.8189    2.8465    0.0000 H   0  0  0  0  0  0  0  0  0  0  0  0
    5.0868   -0.1535    0.0000 H   0  0  0  0  0  0  0  0  0  0  0  0
    9.9539    3.4165    0.0000 H   0  0  0  0  0  0  0  0  0  0  0  0
    3.6684   -2.9920    0.0000 H   0  0  0  0  0  0  0  0  0  0  0  0
    3.3148   -3.2489    0.0000 H   0  0  0  0  0  0  0  0  0  0  0  0
    9.4170    0.1065    0.0000 H   0  0  0  0  0  0  0  0  0  0  0  0
    8.5510    3.6065    0.0000 H   0  0  0  0  0  0  0  0  0  0  0  0
    4.0023   -5.3648    0.0000 H   0  0  0  0  0  0  0  0  0  0  0  0
    5.3423    2.8342    0.0000 H   0  0  0  0  0  0  0  0  0  0  0  0
    5.7408    2.1439    0.0000 H   0  0  0  0  0  0  0  0  0  0  0  0
    5.3332   -4.7154    0.0000 H   0  0  0  0  0  0  0  0  0  0  0  0
   10.8199    4.5365    0.0000 H   0  0  0  0  0  0  0  0  0  0  0  0
    3.6102   -0.1658    0.0000 H   0  0  0  0  0  0  0  0  0  0  0  0
    4.0088   -0.8561    0.0000 H   0  0  0  0  0  0  0  0  0  0  0  0
    8.0140    4.9165    0.0000 H   0  0  0  0  0  0  0  0  0  0  0  0
    5.4159    1.0365    0.0000 H   0  0  0  0  0  0  0  0  0  0  0  0
    8.8800    6.0365    0.0000 H   0  0  0  0  0  0  0  0  0  0  0  0
    6.4898   -3.5835    0.0000 H   0  0  0  0  0  0  0  0  0  0  0  0
    8.2219   -1.9635    0.0000 H   0  0  0  0  0  0  0  0  0  0  0  0
    5.8226   -5.9681    0.0000 H   0  0  0  0  0  0  0  0  0  0  0  0
    5.7393   -5.1754    0.0000 H   0  0  0  0  0  0  0  0  0  0  0  0
    2.0000   -3.9671    0.0000 H   0  0  0  0  0  0  0  0  0  0  0  0
    7.1480    4.0365    0.0000 H   0  0  0  0  0  0  0  0  0  0  0  0
    2.5164   -5.5566    0.0000 H   0  0  0  0  0  0  0  0  0  0  0  0
    5.4159    4.0365    0.0000 H   0  0  0  0  0  0  0  0  0  0  0  0
    3.6839    1.0365    0.0000 H   0  0  0  0  0  0  0  0  0  0  0  0
    7.6849    6.3465    0.0000 H   0  0  0  0  0  0  0  0  0  0  0  0
   10.8390    0.1896    0.0000 H   0  0  0  0  0  0  0  0  0  0  0  0
   11.6860    0.4165    0.0000 H   0  0  0  0  0  0  0  0  0  0  0  0
   11.4590    1.2634    0.0000 H   0  0  0  0  0  0  0  0  0  0  0  0
    9.9539    7.0365    0.0000 H   0  0  0  0  0  0  0  0  0  0  0  0
    5.2663   -7.0365    0.0000 H   0  0  0  0  0  0  0  0  0  0  0  0
   12.5520    3.9165    0.0000 H   0  0  0  0  0  0  0  0  0  0  0  0
 23  1  1  1  0  0  0
 28  1  1  1  0  0  0
  2 26  1  0  0  0  0
  2 31  1  0  0  0  0
  3 28  1  0  0  0  0
  3 32  1  0  0  0  0
 26  4  1  6  0  0  0
 33  4  1  6  0  0  0
 27  5  1  1  0  0  0
 34  5  1  6  0  0  0
  6 34  1  0  0  0  0
  6 39  1  0  0  0  0
 25  7  1  6  0  0  0
  7 71  1  0  0  0  0
 29  8  1  1  0  0  0
  8 73  1  0  0  0  0
 30  9  1  6  0  0  0
  9 74  1  0  0  0  0
 10 40  1  0  0  0  0
 10 43  1  0  0  0  0
 35 11  1  1  0  0  0
 11 77  1  0  0  0  0
 36 12  1  6  0  0  0
 12 78  1  0  0  0  0
 37 13  1  1  0  0  0
 13 79  1  0  0  0  0
 14 38  1  0  0  0  0
 14 80  1  0  0  0  0
 15 41  1  0  0  0  0
 15 81  1  0  0  0  0
 42 16  1  1  0  0  0
 16 82  1  0  0  0  0
 43 17  1  1  0  0  0
 17 86  1  0  0  0  0
 18 44  1  0  0  0  0
 18 87  1  0  0  0  0
 19 45  2  0  0  0  0
 20 46  1  0  0  0  0
 20 88  1  0  0  0  0
 21 46  2  0  0  0  0
 24 22  1  6  0  0  0
 22 45  1  0  0  0  0
 22 61  1  0  0  0  0
 23 24  1  0  0  0  0
 23 25  1  0  0  0  0
 23 48  1  0  0  0  0
 24 26  1  0  0  0  0
 24 49  1  0  0  0  0
 25 31  1  0  0  0  0
 25 50  1  0  0  0  0
 26 52  1  0  0  0  0
 27 29  1  0  0  0  0
 27 32  1  0  0  0  0
 27 51  1  0  0  0  0
 28 30  1  0  0  0  0
 28 53  1  0  0  0  0
 29 30  1  0  0  0  0
 29 54  1  0  0  0  0
 30 55  1  0  0  0  0
 31 38  1  1  0  0  0
 31 56  1  0  0  0  0
 32 41  1  1  0  0  0
 32 57  1  0  0  0  0
 33 36  1  0  0  0  0
 33 40  1  0  0  0  0
 33 58  1  0  0  0  0
 34 35  1  0  0  0  0
 34 59  1  0  0  0  0
 35 37  1  0  0  0  0
 35 60  1  0  0  0  0
 36 42  1  0  0  0  0
 36 62  1  0  0  0  0
 37 39  1  0  0  0  0
 37 63  1  0  0  0  0
 38 64  1  0  0  0  0
 38 65  1  0  0  0  0
 39 44  1  6  0  0  0
 39 66  1  0  0  0  0
 40 46  1  6  0  0  0
 40 67  1  0  0  0  0
 41 68  1  0  0  0  0
 41 69  1  0  0  0  0
 42 43  1  0  0  0  0
 42 70  1  0  0  0  0
 43 72  1  0  0  0  0
 44 75  1  0  0  0  0
 44 76  1  0  0  0  0
 45 47  1  0  0  0  0
 47 83  1  0  0  0  0
 47 84  1  0  0  0  0
 47 85  1  0  0  0  0
M  END
> <PUBCHEM_COMPOUND_CID>
91857680

> <PUBCHEM_COMPOUND_CANONICALIZED>
1

> <PUBCHEM_CACTVS_COMPLEXITY>
1060

> <PUBCHEM_CACTVS_HBOND_ACCEPTOR>
21

> <PUBCHEM_CACTVS_HBOND_DONOR>
13

> <PUBCHEM_CACTVS_ROTATABLE_BOND>
11

> <PUBCHEM_CACTVS_SUBSKEYS>
AAADcfB6PgAAAAAAAAAAAAAAAAAAASAAAAAkSJAAAAAAAAAAAAAAHgAQCAAACDzxgAcCCALABgAIAAGQGAIAAAAAAAAAAIFIAAATEBYAgAQnQAAHNgCXAAH6fA9AAAAAAAAAAAAAAAAAAAAAAAAAAAAAAA==

> <PUBCHEM_IUPAC_OPENEYE_NAME>
(2S,3R,4R,5R,6S)-3-[(2R,3R,4R,5S,6R)-3-acetamido-4-[(2R,3R,4R,5R,6R)-5-[(2S,3R,4S,5R)-3,4-dihydroxy-5-(hydroxymethyl)tetrahydrofuran-2-yl]oxy-3,4-dihydroxy-6-(hydroxymethyl)tetrahydropyran-2-yl]oxy-5-hydroxy-6-(hydroxymethyl)tetrahydropyran-2-yl]oxy-4,5,6-trihydroxy-tetrahydropyran-2-carboxylic acid

> <PUBCHEM_IUPAC_CAS_NAME>
(2S,3R,4R,5R,6S)-3-[[(2R,3R,4R,5S,6R)-3-acetamido-4-[[(2R,3R,4R,5R,6R)-5-[[(2S,3R,4S,5R)-3,4-dihydroxy-5-(hydroxymethyl)-2-oxolanyl]oxy]-3,4-dihydroxy-6-(hydroxymethyl)-2-oxanyl]oxy]-5-hydroxy-6-(hydroxymethyl)-2-oxanyl]oxy]-4,5,6-trihydroxy-2-oxanecarboxylic acid

> <PUBCHEM_IUPAC_NAME_MARKUP>
(2<I>S</I>,3<I>R</I>,4<I>R</I>,5<I>R</I>,6<I>S</I>)-3-[(2<I>R</I>,3<I>R</I>,4<I>R</I>,5<I>S</I>,6<I>R</I>)-3-acetamido-4-[(2<I>R</I>,3<I>R</I>,4<I>R</I>,5<I>R</I>,6<I>R</I>)-5-[(2<I>S</I>,3<I>R</I>,4<I>S</I>,5<I>R</I>)-3,4-dihydroxy-5-(hydroxymethyl)oxolan-2-yl]oxy-3,4-dihydroxy-6-(hydroxymethyl)oxan-2-yl]oxy-5-hydroxy-6-(hydroxymethyl)oxan-2-yl]oxy-4,5,6-trihydroxyoxane-2-carboxylic acid

> <PUBCHEM_IUPAC_NAME>
(2S,3R,4R,5R,6S)-3-[(2R,3R,4R,5S,6R)-3-acetamido-4-[(2R,3R,4R,5R,6R)-5-[(2S,3R,4S,5R)-3,4-dihydroxy-5-(hydroxymethyl)oxolan-2-yl]oxy-3,4-dihydroxy-6-(hydroxymethyl)oxan-2-yl]oxy-5-hydroxy-6-(hydroxymethyl)oxan-2-yl]oxy-4,5,6-trihydroxyoxane-2-carboxylic acid

> <PUBCHEM_IUPAC_SYSTEMATIC_NAME>
(2S,3R,4R,5R,6S)-3-[(2R,3R,4R,5S,6R)-3-acetamido-6-(hydroxymethyl)-4-[(2R,3R,4R,5R,6R)-6-(hydroxymethyl)-5-[(2S,3R,4S,5R)-5-(hydroxymethyl)-3,4-bis(oxidanyl)oxolan-2-yl]oxy-3,4-bis(oxidanyl)oxan-2-yl]oxy-5-oxidanyl-oxan-2-yl]oxy-4,5,6-tris(oxidanyl)oxane-2-carboxylic acid

> <PUBCHEM_IUPAC_TRADITIONAL_NAME>
(2S,3R,4R,5R,6S)-3-[(2R,3R,4R,5S,6R)-3-acetamido-4-[(2R,3R,4R,5R,6R)-5-[(2S,3R,4S,5R)-3,4-dihydroxy-5-methylol-tetrahydrofuran-2-yl]oxy-3,4-dihydroxy-6-methylol-tetrahydropyran-2-yl]oxy-5-hydroxy-6-methylol-tetrahydropyran-2-yl]oxy-4,5,6-trihydroxy-tetrahydropyran-2-carboxylic acid

> <PUBCHEM_IUPAC_INCHI>
InChI=1S/C25H41NO21/c1-5(30)26-9-18(11(32)7(3-28)41-23(9)47-19-12(33)14(35)22(40)44-20(19)21(38)39)46-25-16(37)13(34)17(8(4-29)43-25)45-24-15(36)10(31)6(2-27)42-24/h6-20,22-25,27-29,31-37,40H,2-4H2,1H3,(H,26,30)(H,38,39)/t6-,7-,8-,9-,10-,11-,12-,13-,14-,15-,16-,17+,18-,19-,20+,22+,23-,24+,25+/m1/s1

> <PUBCHEM_IUPAC_INCHIKEY>
RKPJVFMZJAYCIL-AJDVOBEKSA-N

> <PUBCHEM_XLOGP3_AA>
-7.6

> <PUBCHEM_EXACT_MASS>
691.21710732

> <PUBCHEM_MOLECULAR_FORMULA>
C25H41NO21

> <PUBCHEM_MOLECULAR_WEIGHT>
691.6

> <PUBCHEM_OPENEYE_CAN_SMILES>
CC(=O)NC1C(C(C(OC1OC2C(C(C(OC2C(=O)O)O)O)O)CO)O)OC3C(C(C(C(O3)CO)OC4C(C(C(O4)CO)O)O)O)O

> <PUBCHEM_OPENEYE_ISO_SMILES>
CC(=O)N[C@@H]1[C@H]([C@@H]([C@H](O[C@@H]1O[C@@H]2[C@@H]([C@H]([C@H](O[C@@H]2C(=O)O)O)O)O)CO)O)O[C@H]3[C@@H]([C@H]([C@H]([C@H](O3)CO)O[C@H]4[C@@H]([C@@H]([C@H](O4)CO)O)O)O)O

> <PUBCHEM_CACTVS_TPSA>
354

> <PUBCHEM_MONOISOTOPIC_WEIGHT>
691.21710732

> <PUBCHEM_TOTAL_CHARGE>
0

> <PUBCHEM_HEAVY_ATOM_COUNT>
47

> <PUBCHEM_ATOM_DEF_STEREO_COUNT>
19

> <PUBCHEM_ATOM_UDEF_STEREO_COUNT>
0

> <PUBCHEM_BOND_DEF_STEREO_COUNT>
0

> <PUBCHEM_BOND_UDEF_STEREO_COUNT>
0

> <PUBCHEM_ISOTOPIC_ATOM_COUNT>
0

> <PUBCHEM_COMPONENT_COUNT>
1

> <PUBCHEM_CACTVS_TAUTO_COUNT>
-1

> <PUBCHEM_COORDINATE_TYPE>
1
5
255

> <PUBCHEM_BONDANNOTATIONS>
23  1  5
28  1  5
35  11  5
36  12  6
37  13  5
42  16  5
43  17  5
24  22  6
31  38  5
32  41  5
39  44  6
26  4  6
33  4  6
40  46  6
27  5  5
34  5  6
25  7  6
29  8  5
30  9  6

$$$$
