 
  -OEChem-10192104422D

 27 27  0     0  0  0  0  0  0999 V2000
    5.9589   -2.3807    0.0000 S   0  0  0  0  0  0  0  0  0  0  0  0
    6.9589   -2.3807    0.0000 O   0  0  0  0  0  0  0  0  0  0  0  0
    4.9589   -2.3807    0.0000 O   0  0  0  0  0  0  0  0  0  0  0  0
    2.5896    1.0672    0.0000 O   0  0  0  0  0  0  0  0  0  0  0  0
    3.1249   -0.5801    0.0000 O   0  0  0  0  0  0  0  0  0  0  0  0
    7.1752    2.3626    0.0000 O   0  5  0  0  0  0  0  0  0  0  0  0
    5.7739    3.3807    0.0000 O   0  0  0  0  0  0  0  0  0  0  0  0
    5.0929    0.1193    0.0000 N   0  0  0  0  0  0  0  0  0  0  0  0
    6.1807    2.4672    0.0000 N   0  3  0  0  0  0  0  0  0  0  0  0
    5.0929   -0.8807    0.0000 C   0  0  0  0  0  0  0  0  0  0  0  0
    5.9589   -1.3807    0.0000 C   0  0  0  0  0  0  0  0  0  0  0  0
    4.2839    0.7071    0.0000 C   0  0  0  0  0  0  0  0  0  0  0  0
    5.9019    0.7071    0.0000 C   0  0  0  0  0  0  0  0  0  0  0  0
    5.5929    1.6581    0.0000 C   0  0  0  0  0  0  0  0  0  0  0  0
    4.5929    1.6581    0.0000 C   0  0  0  0  0  0  0  0  0  0  0  0
    5.9589   -3.3807    0.0000 C   0  0  0  0  0  0  0  0  0  0  0  0
    3.3328    0.3981    0.0000 C   0  0  0  0  0  0  0  0  0  0  0  0
    4.4823   -0.7730    0.0000 H   0  0  0  0  0  0  0  0  0  0  0  0
    4.8808   -1.4633    0.0000 H   0  0  0  0  0  0  0  0  0  0  0  0
    6.5695   -1.4884    0.0000 H   0  0  0  0  0  0  0  0  0  0  0  0
    6.1710   -0.7981    0.0000 H   0  0  0  0  0  0  0  0  0  0  0  0
    6.4916    0.5155    0.0000 H   0  0  0  0  0  0  0  0  0  0  0  0
    4.2284    2.1597    0.0000 H   0  0  0  0  0  0  0  0  0  0  0  0
    5.3389   -3.3807    0.0000 H   0  0  0  0  0  0  0  0  0  0  0  0
    5.9589   -4.0007    0.0000 H   0  0  0  0  0  0  0  0  0  0  0  0
    6.5789   -3.3807    0.0000 H   0  0  0  0  0  0  0  0  0  0  0  0
    2.0000    0.8756    0.0000 H   0  0  0  0  0  0  0  0  0  0  0  0
  1  2  2  0  0  0  0
  1  3  2  0  0  0  0
  1 11  1  0  0  0  0
  1 16  1  0  0  0  0
  4 17  1  0  0  0  0
  4 27  1  0  0  0  0
  5 17  2  0  0  0  0
  6  9  1  0  0  0  0
  7  9  2  0  0  0  0
  8 10  1  0  0  0  0
  8 12  1  0  0  0  0
  8 13  1  0  0  0  0
  9 14  1  0  0  0  0
 10 11  1  0  0  0  0
 10 18  1  0  0  0  0
 10 19  1  0  0  0  0
 11 20  1  0  0  0  0
 11 21  1  0  0  0  0
 12 15  2  0  0  0  0
 12 17  1  0  0  0  0
 13 14  2  0  0  0  0
 13 22  1  0  0  0  0
 14 15  1  0  0  0  0
 15 23  1  0  0  0  0
 16 24  1  0  0  0  0
 16 25  1  0  0  0  0
 16 26  1  0  0  0  0
M  CHG  2   6  -1   9   1
M  END
> <PUBCHEM_COMPOUND_CID>
61292769

> <PUBCHEM_COMPOUND_CANONICALIZED>
1

> <PUBCHEM_CACTVS_COMPLEXITY>
409

> <PUBCHEM_CACTVS_HBOND_ACCEPTOR>
6

> <PUBCHEM_CACTVS_HBOND_DONOR>
1

> <PUBCHEM_CACTVS_ROTATABLE_BOND>
4

> <PUBCHEM_CACTVS_SUBSKEYS>
AAADccBzOABAAAAAAAAAAAAAAAAAAWAAAAAAAAAAAAAAAAABgAAAHgQECAAACAjF1gS+yJMcUgqpATT3T3TCgCA3EjAg2CG4fNoKZvLA1fGUVQhkwIHY2Ya8EQIAAAAAAAAAAAAAAAAAAAAAAAAAAAAAAA==

> <PUBCHEM_IUPAC_OPENEYE_NAME>
1-(2-methylsulfonylethyl)-4-nitro-pyrrole-2-carboxylic acid

> <PUBCHEM_IUPAC_CAS_NAME>
1-(2-methylsulfonylethyl)-4-nitro-2-pyrrolecarboxylic acid

> <PUBCHEM_IUPAC_NAME_MARKUP>
1-(2-methylsulfonylethyl)-4-nitropyrrole-2-carboxylic acid

> <PUBCHEM_IUPAC_NAME>
1-(2-methylsulfonylethyl)-4-nitropyrrole-2-carboxylic acid

> <PUBCHEM_IUPAC_SYSTEMATIC_NAME>
1-(2-methylsulfonylethyl)-4-nitro-pyrrole-2-carboxylic acid

> <PUBCHEM_IUPAC_TRADITIONAL_NAME>
1-(2-mesylethyl)-4-nitro-pyrrole-2-carboxylic acid

> <PUBCHEM_IUPAC_INCHI>
InChI=1S/C8H10N2O6S/c1-17(15,16)3-2-9-5-6(10(13)14)4-7(9)8(11)12/h4-5H,2-3H2,1H3,(H,11,12)

> <PUBCHEM_IUPAC_INCHIKEY>
JNODWKOEHPLVRB-UHFFFAOYSA-N

> <PUBCHEM_XLOGP3_AA>
-0.3

> <PUBCHEM_EXACT_MASS>
262.02595722

> <PUBCHEM_MOLECULAR_FORMULA>
C8H10N2O6S

> <PUBCHEM_MOLECULAR_WEIGHT>
262.24

> <PUBCHEM_OPENEYE_CAN_SMILES>
CS(=O)(=O)CCN1C=C(C=C1C(=O)O)[N+](=O)[O-]

> <PUBCHEM_OPENEYE_ISO_SMILES>
CS(=O)(=O)CCN1C=C(C=C1C(=O)O)[N+](=O)[O-]

> <PUBCHEM_CACTVS_TPSA>
131

> <PUBCHEM_MONOISOTOPIC_WEIGHT>
262.02595722

> <PUBCHEM_TOTAL_CHARGE>
0

> <PUBCHEM_HEAVY_ATOM_COUNT>
17

> <PUBCHEM_ATOM_DEF_STEREO_COUNT>
0

> <PUBCHEM_ATOM_UDEF_STEREO_COUNT>
0

> <PUBCHEM_BOND_DEF_STEREO_COUNT>
0

> <PUBCHEM_BOND_UDEF_STEREO_COUNT>
0

> <PUBCHEM_ISOTOPIC_ATOM_COUNT>
0

> <PUBCHEM_COMPONENT_COUNT>
1

> <PUBCHEM_CACTVS_TAUTO_COUNT>
-1

> <PUBCHEM_COORDINATE_TYPE>
1
5
255

> <PUBCHEM_BONDANNOTATIONS>
12  15  8
13  14  8
14  15  8
8  12  8
8  13  8

$$$$
