 
  -OEChem-10192104432D

 23 24  0     1  0  0  0  0  0999 V2000
    4.0574    1.8045    0.0000 O   0  0  0  0  0  0  0  0  0  0  0  0
    3.1235   -1.2871    0.0000 C   0  0  3  0  0  0  0  0  0  0  0  0
    2.2225   -0.8532    0.0000 C   0  0  3  0  0  0  0  0  0  0  0  0
    2.2970   -1.8509    0.0000 C   0  0  0  0  0  0  0  0  0  0  0  0
    4.0245   -0.8532    0.0000 C   0  0  0  0  0  0  0  0  0  0  0  0
    2.0000    0.1217    0.0000 C   0  0  0  0  0  0  0  0  0  0  0  0
    4.2470    0.1217    0.0000 C   0  0  0  0  0  0  0  0  0  0  0  0
    2.6235    0.9036    0.0000 C   0  0  0  0  0  0  0  0  0  0  0  0
    3.6235    0.9036    0.0000 C   0  0  0  0  0  0  0  0  0  0  0  0
    3.4336   -1.8240    0.0000 H   0  0  0  0  0  0  0  0  0  0  0  0
    1.6094   -0.9455    0.0000 H   0  0  0  0  0  0  0  0  0  0  0  0
    1.6962   -2.0038    0.0000 H   0  0  0  0  0  0  0  0  0  0  0  0
    2.5521   -2.4160    0.0000 H   0  0  0  0  0  0  0  0  0  0  0  0
    4.1624   -1.4576    0.0000 H   0  0  0  0  0  0  0  0  0  0  0  0
    4.6445   -0.8532    0.0000 H   0  0  0  0  0  0  0  0  0  0  0  0
    1.6134    0.6065    0.0000 H   0  0  0  0  0  0  0  0  0  0  0  0
    1.4414   -0.1473    0.0000 H   0  0  0  0  0  0  0  0  0  0  0  0
    4.8056   -0.1473    0.0000 H   0  0  0  0  0  0  0  0  0  0  0  0
    4.6335    0.6065    0.0000 H   0  0  0  0  0  0  0  0  0  0  0  0
    2.7614    1.5080    0.0000 H   0  0  0  0  0  0  0  0  0  0  0  0
    2.0649    1.1726    0.0000 H   0  0  0  0  0  0  0  0  0  0  0  0
    4.2396    0.9730    0.0000 H   0  0  0  0  0  0  0  0  0  0  0  0
    4.6756    1.8509    0.0000 H   0  0  0  0  0  0  0  0  0  0  0  0
  1  9  1  0  0  0  0
  1 23  1  0  0  0  0
  2  3  1  0  0  0  0
  2  4  1  0  0  0  0
  2  5  1  0  0  0  0
  2 10  1  0  0  0  0
  3  4  1  0  0  0  0
  3  6  1  0  0  0  0
  3 11  1  0  0  0  0
  4 12  1  0  0  0  0
  4 13  1  0  0  0  0
  5  7  1  0  0  0  0
  5 14  1  0  0  0  0
  5 15  1  0  0  0  0
  6  8  1  0  0  0  0
  6 16  1  0  0  0  0
  6 17  1  0  0  0  0
  7  9  1  0  0  0  0
  7 18  1  0  0  0  0
  7 19  1  0  0  0  0
  8  9  1  0  0  0  0
  8 20  1  0  0  0  0
  8 21  1  0  0  0  0
  9 22  1  0  0  0  0
M  END
> <PUBCHEM_COMPOUND_CID>
548902

> <PUBCHEM_COMPOUND_CANONICALIZED>
1

> <PUBCHEM_CACTVS_COMPLEXITY>
99.1

> <PUBCHEM_CACTVS_HBOND_ACCEPTOR>
1

> <PUBCHEM_CACTVS_HBOND_DONOR>
1

> <PUBCHEM_CACTVS_ROTATABLE_BOND>
0

> <PUBCHEM_CACTVS_SUBSKEYS>
AAADccBwIAAAAAAAAAAAAAAAGAAAAAAAAAAAAAAABgAYAAAAAAAAGgAACAAADRSggAIAAAAAAgAAAAAAAAAAAAAAAAAAAAAAAAAAEAIAAAAAQAAEAAAAAAGAwPAOAAAAAAAAAAAAAAAAAAAAAAAAAAAAAA==

> <PUBCHEM_IUPAC_OPENEYE_NAME>
bicyclo[5.1.0]octan-4-ol

> <PUBCHEM_IUPAC_CAS_NAME>
4-bicyclo[5.1.0]octanol

> <PUBCHEM_IUPAC_NAME_MARKUP>
bicyclo[5.1.0]octan-4-ol

> <PUBCHEM_IUPAC_NAME>
bicyclo[5.1.0]octan-4-ol

> <PUBCHEM_IUPAC_SYSTEMATIC_NAME>
bicyclo[5.1.0]octan-4-ol

> <PUBCHEM_IUPAC_TRADITIONAL_NAME>
bicyclo[5.1.0]octan-4-ol

> <PUBCHEM_IUPAC_INCHI>
InChI=1S/C8H14O/c9-8-3-1-6-5-7(6)2-4-8/h6-9H,1-5H2

> <PUBCHEM_IUPAC_INCHIKEY>
DTRKIOSKHMKYSU-UHFFFAOYSA-N

> <PUBCHEM_XLOGP3_AA>
1.6

> <PUBCHEM_EXACT_MASS>
126.104465066

> <PUBCHEM_MOLECULAR_FORMULA>
C8H14O

> <PUBCHEM_MOLECULAR_WEIGHT>
126.20

> <PUBCHEM_OPENEYE_CAN_SMILES>
C1CC2CC2CCC1O

> <PUBCHEM_OPENEYE_ISO_SMILES>
C1CC2CC2CCC1O

> <PUBCHEM_CACTVS_TPSA>
20.2

> <PUBCHEM_MONOISOTOPIC_WEIGHT>
126.104465066

> <PUBCHEM_TOTAL_CHARGE>
0

> <PUBCHEM_HEAVY_ATOM_COUNT>
9

> <PUBCHEM_ATOM_DEF_STEREO_COUNT>
0

> <PUBCHEM_ATOM_UDEF_STEREO_COUNT>
2

> <PUBCHEM_BOND_DEF_STEREO_COUNT>
0

> <PUBCHEM_BOND_UDEF_STEREO_COUNT>
0

> <PUBCHEM_ISOTOPIC_ATOM_COUNT>
0

> <PUBCHEM_COMPONENT_COUNT>
1

> <PUBCHEM_CACTVS_TAUTO_COUNT>
-1

> <PUBCHEM_COORDINATE_TYPE>
1
5
255

> <PUBCHEM_BONDANNOTATIONS>
2  5  3
3  6  3

$$$$
