 
  -OEChem-10192104282D

 85 86  0     1  0  0  0  0  0999 V2000
    5.4641    0.5000    0.0000 O   0  0  0  0  0  0  0  0  0  0  0  0
    8.9282   -0.5000    0.0000 O   0  0  0  0  0  0  0  0  0  0  0  0
    7.1962    2.5000    0.0000 O   0  0  0  0  0  0  0  0  0  0  0  0
    5.4641    3.5000    0.0000 O   0  0  0  0  0  0  0  0  0  0  0  0
    3.7320    2.5000    0.0000 O   0  0  0  0  0  0  0  0  0  0  0  0
    7.1962   -2.5000    0.0000 O   0  0  0  0  0  0  0  0  0  0  0  0
    8.9282   -3.5000    0.0000 O   0  0  0  0  0  0  0  0  0  0  0  0
   10.6603   -2.5000    0.0000 O   0  0  0  0  0  0  0  0  0  0  0  0
   10.6603   -0.5000    0.0000 O   0  0  0  0  0  0  0  0  0  0  0  0
    3.7320   -0.5000    0.0000 O   0  0  0  0  0  0  0  0  0  0  0  0
    6.3301    4.0000    0.0000 O   0  0  0  0  0  0  0  0  0  0  0  0
    3.7320    3.5000    0.0000 O   0  0  0  0  0  0  0  0  0  0  0  0
    2.8660    1.0000    0.0000 O   0  0  0  0  0  0  0  0  0  0  0  0
    6.3301   -1.0000    0.0000 O   0  0  0  0  0  0  0  0  0  0  0  0
    7.1962   -3.5000    0.0000 O   0  0  0  0  0  0  0  0  0  0  0  0
   11.5263   -1.0000    0.0000 O   0  0  0  0  0  0  0  0  0  0  0  0
    2.0000   -0.5000    0.0000 O   0  0  0  0  0  0  0  0  0  0  0  0
    6.3301    1.0000    0.0000 C   0  0  2  0  0  0  0  0  0  0  0  0
    6.3301    2.0000    0.0000 C   0  0  1  0  0  0  0  0  0  0  0  0
    8.0622   -1.0000    0.0000 C   0  0  2  0  0  0  0  0  0  0  0  0
    7.1962    0.5000    0.0000 C   0  0  0  0  0  0  0  0  0  0  0  0
    5.4641    2.5000    0.0000 C   0  0  2  0  0  0  0  0  0  0  0  0
    7.1962   -0.5000    0.0000 C   0  0  0  0  0  0  0  0  0  0  0  0
    4.5981    2.0000    0.0000 C   0  0  2  0  0  0  0  0  0  0  0  0
    8.0622   -2.0000    0.0000 C   0  0  2  0  0  0  0  0  0  0  0  0
    4.5981    1.0000    0.0000 C   0  0  1  0  0  0  0  0  0  0  0  0
    8.9282   -2.5000    0.0000 C   0  0  1  0  0  0  0  0  0  0  0  0
    9.7942   -2.0000    0.0000 C   0  0  2  0  0  0  0  0  0  0  0  0
    9.7942   -1.0000    0.0000 C   0  0  2  0  0  0  0  0  0  0  0  0
    3.7320    0.5000    0.0000 C   0  0  0  0  0  0  0  0  0  0  0  0
    7.1962    3.5000    0.0000 C   0  0  0  0  0  0  0  0  0  0  0  0
    4.5981    4.0000    0.0000 C   0  0  0  0  0  0  0  0  0  0  0  0
    2.8660    2.0000    0.0000 C   0  0  0  0  0  0  0  0  0  0  0  0
    6.3301   -2.0000    0.0000 C   0  0  0  0  0  0  0  0  0  0  0  0
    8.0622   -4.0000    0.0000 C   0  0  0  0  0  0  0  0  0  0  0  0
   11.5263   -2.0000    0.0000 C   0  0  0  0  0  0  0  0  0  0  0  0
   10.6603    0.5000    0.0000 C   0  0  0  0  0  0  0  0  0  0  0  0
    8.0622    4.0000    0.0000 C   0  0  0  0  0  0  0  0  0  0  0  0
    4.5981    5.0000    0.0000 C   0  0  0  0  0  0  0  0  0  0  0  0
    2.8660   -1.0000    0.0000 C   0  0  0  0  0  0  0  0  0  0  0  0
    2.0000    2.5000    0.0000 C   0  0  0  0  0  0  0  0  0  0  0  0
    5.4641   -2.5000    0.0000 C   0  0  0  0  0  0  0  0  0  0  0  0
    8.0622   -5.0000    0.0000 C   0  0  0  0  0  0  0  0  0  0  0  0
   12.3923   -2.5000    0.0000 C   0  0  0  0  0  0  0  0  0  0  0  0
    2.8660   -2.0000    0.0000 C   0  0  0  0  0  0  0  0  0  0  0  0
    6.3301    0.3800    0.0000 H   0  0  0  0  0  0  0  0  0  0  0  0
    6.3301    2.6200    0.0000 H   0  0  0  0  0  0  0  0  0  0  0  0
    8.0622   -0.3800    0.0000 H   0  0  0  0  0  0  0  0  0  0  0  0
    7.8067    0.3923    0.0000 H   0  0  0  0  0  0  0  0  0  0  0  0
    7.4082    1.0826    0.0000 H   0  0  0  0  0  0  0  0  0  0  0  0
    4.9272    2.8100    0.0000 H   0  0  0  0  0  0  0  0  0  0  0  0
    6.5856   -0.3923    0.0000 H   0  0  0  0  0  0  0  0  0  0  0  0
    6.9841   -1.0826    0.0000 H   0  0  0  0  0  0  0  0  0  0  0  0
    4.5981    2.6200    0.0000 H   0  0  0  0  0  0  0  0  0  0  0  0
    8.0622   -2.6200    0.0000 H   0  0  0  0  0  0  0  0  0  0  0  0
    4.5981    0.3800    0.0000 H   0  0  0  0  0  0  0  0  0  0  0  0
    8.3913   -2.8100    0.0000 H   0  0  0  0  0  0  0  0  0  0  0  0
    9.7942   -2.6200    0.0000 H   0  0  0  0  0  0  0  0  0  0  0  0
    9.7942   -0.3800    0.0000 H   0  0  0  0  0  0  0  0  0  0  0  0
    3.5200    1.0826    0.0000 H   0  0  0  0  0  0  0  0  0  0  0  0
    3.1215    0.3923    0.0000 H   0  0  0  0  0  0  0  0  0  0  0  0
   11.2803    0.5000    0.0000 H   0  0  0  0  0  0  0  0  0  0  0  0
   10.6603    1.1200    0.0000 H   0  0  0  0  0  0  0  0  0  0  0  0
   10.0403    0.5000    0.0000 H   0  0  0  0  0  0  0  0  0  0  0  0
    8.3722    3.4631    0.0000 H   0  0  0  0  0  0  0  0  0  0  0  0
    8.5991    4.3100    0.0000 H   0  0  0  0  0  0  0  0  0  0  0  0
    7.7522    4.5369    0.0000 H   0  0  0  0  0  0  0  0  0  0  0  0
    5.2181    5.0000    0.0000 H   0  0  0  0  0  0  0  0  0  0  0  0
    4.5981    5.6200    0.0000 H   0  0  0  0  0  0  0  0  0  0  0  0
    3.9781    5.0000    0.0000 H   0  0  0  0  0  0  0  0  0  0  0  0
    2.3100    3.0369    0.0000 H   0  0  0  0  0  0  0  0  0  0  0  0
    1.4631    2.8100    0.0000 H   0  0  0  0  0  0  0  0  0  0  0  0
    1.6900    1.9631    0.0000 H   0  0  0  0  0  0  0  0  0  0  0  0
    5.1541   -1.9631    0.0000 H   0  0  0  0  0  0  0  0  0  0  0  0
    4.9272   -2.8100    0.0000 H   0  0  0  0  0  0  0  0  0  0  0  0
    5.7741   -3.0369    0.0000 H   0  0  0  0  0  0  0  0  0  0  0  0
    7.4422   -5.0000    0.0000 H   0  0  0  0  0  0  0  0  0  0  0  0
    8.0622   -5.6200    0.0000 H   0  0  0  0  0  0  0  0  0  0  0  0
    8.6822   -5.0000    0.0000 H   0  0  0  0  0  0  0  0  0  0  0  0
   12.0823   -3.0369    0.0000 H   0  0  0  0  0  0  0  0  0  0  0  0
   12.9292   -2.8100    0.0000 H   0  0  0  0  0  0  0  0  0  0  0  0
   12.7023   -1.9631    0.0000 H   0  0  0  0  0  0  0  0  0  0  0  0
    2.2460   -2.0000    0.0000 H   0  0  0  0  0  0  0  0  0  0  0  0
    2.8660   -2.6200    0.0000 H   0  0  0  0  0  0  0  0  0  0  0  0
    3.4860   -2.0000    0.0000 H   0  0  0  0  0  0  0  0  0  0  0  0
  1 18  1  0  0  0  0
  1 26  1  0  0  0  0
  2 20  1  0  0  0  0
  2 29  1  0  0  0  0
 19  3  1  1  0  0  0
  3 31  1  0  0  0  0
 22  4  1  6  0  0  0
  4 32  1  0  0  0  0
 24  5  1  6  0  0  0
  5 33  1  0  0  0  0
 25  6  1  6  0  0  0
  6 34  1  0  0  0  0
 27  7  1  1  0  0  0
  7 35  1  0  0  0  0
 28  8  1  6  0  0  0
  8 36  1  0  0  0  0
 29  9  1  6  0  0  0
  9 37  1  0  0  0  0
 10 30  1  0  0  0  0
 10 40  1  0  0  0  0
 11 31  2  0  0  0  0
 12 32  2  0  0  0  0
 13 33  2  0  0  0  0
 14 34  2  0  0  0  0
 15 35  2  0  0  0  0
 16 36  2  0  0  0  0
 17 40  2  0  0  0  0
 18 19  1  0  0  0  0
 18 21  1  6  0  0  0
 18 46  1  0  0  0  0
 19 22  1  0  0  0  0
 19 47  1  0  0  0  0
 20 23  1  1  0  0  0
 20 25  1  0  0  0  0
 20 48  1  0  0  0  0
 21 23  1  0  0  0  0
 21 49  1  0  0  0  0
 21 50  1  0  0  0  0
 22 24  1  0  0  0  0
 22 51  1  0  0  0  0
 23 52  1  0  0  0  0
 23 53  1  0  0  0  0
 24 26  1  0  0  0  0
 24 54  1  0  0  0  0
 25 27  1  0  0  0  0
 25 55  1  0  0  0  0
 26 30  1  6  0  0  0
 26 56  1  0  0  0  0
 27 28  1  0  0  0  0
 27 57  1  0  0  0  0
 28 29  1  0  0  0  0
 28 58  1  0  0  0  0
 29 59  1  0  0  0  0
 30 60  1  0  0  0  0
 30 61  1  0  0  0  0
 31 38  1  0  0  0  0
 32 39  1  0  0  0  0
 33 41  1  0  0  0  0
 34 42  1  0  0  0  0
 35 43  1  0  0  0  0
 36 44  1  0  0  0  0
 37 62  1  0  0  0  0
 37 63  1  0  0  0  0
 37 64  1  0  0  0  0
 38 65  1  0  0  0  0
 38 66  1  0  0  0  0
 38 67  1  0  0  0  0
 39 68  1  0  0  0  0
 39 69  1  0  0  0  0
 39 70  1  0  0  0  0
 40 45  1  0  0  0  0
 41 71  1  0  0  0  0
 41 72  1  0  0  0  0
 41 73  1  0  0  0  0
 42 74  1  0  0  0  0
 42 75  1  0  0  0  0
 42 76  1  0  0  0  0
 43 77  1  0  0  0  0
 43 78  1  0  0  0  0
 43 79  1  0  0  0  0
 44 80  1  0  0  0  0
 44 81  1  0  0  0  0
 44 82  1  0  0  0  0
 45 83  1  0  0  0  0
 45 84  1  0  0  0  0
 45 85  1  0  0  0  0
M  END
> <PUBCHEM_COMPOUND_CID>
10841930

> <PUBCHEM_COMPOUND_CANONICALIZED>
1

> <PUBCHEM_CACTVS_COMPLEXITY>
1100

> <PUBCHEM_CACTVS_HBOND_ACCEPTOR>
17

> <PUBCHEM_CACTVS_HBOND_DONOR>
0

> <PUBCHEM_CACTVS_ROTATABLE_BOND>
19

> <PUBCHEM_CACTVS_SUBSKEYS>
AAADcfB4PgAAAAAAAAAAAAAAAAAAAAAAAAAkSAAAAAAAAAAAAAAAGgAAAAAACBSwgAMCCAAABAAIAACQCAAAAAAAAAAAAAAAAAARAAIAAAAiAAAFAAAGAAHA4KwAAAAAAAAAAAAAAAAAAAAAAAAAAAAAAA==

> <PUBCHEM_IUPAC_OPENEYE_NAME>
[(2R,3S,4R,5S,6S)-3,4,5-triacetoxy-6-[2-[(2R,3R,4S,5R,6S)-3,4,5-triacetoxy-6-methoxy-tetrahydropyran-2-yl]ethyl]tetrahydropyran-2-yl]methyl acetate

> <PUBCHEM_IUPAC_CAS_NAME>
acetic acid [(2R,3S,4R,5S,6S)-3,4,5-triacetyloxy-6-[2-[(2R,3R,4S,5R,6S)-3,4,5-triacetyloxy-6-methoxy-2-oxanyl]ethyl]-2-oxanyl]methyl ester

> <PUBCHEM_IUPAC_NAME_MARKUP>
[(2<I>R</I>,3<I>S</I>,4<I>R</I>,5<I>S</I>,6<I>S</I>)-3,4,5-triacetyloxy-6-[2-[(2<I>R</I>,3<I>R</I>,4<I>S</I>,5<I>R</I>,6<I>S</I>)-3,4,5-triacetyloxy-6-methoxyoxan-2-yl]ethyl]oxan-2-yl]methyl acetate

> <PUBCHEM_IUPAC_NAME>
[(2R,3S,4R,5S,6S)-3,4,5-triacetyloxy-6-[2-[(2R,3R,4S,5R,6S)-3,4,5-triacetyloxy-6-methoxyoxan-2-yl]ethyl]oxan-2-yl]methyl acetate

> <PUBCHEM_IUPAC_SYSTEMATIC_NAME>
[(2R,3S,4R,5S,6S)-3,4,5-triacetyloxy-6-[2-[(2R,3R,4S,5R,6S)-3,4,5-triacetyloxy-6-methoxy-oxan-2-yl]ethyl]oxan-2-yl]methyl ethanoate

> <PUBCHEM_IUPAC_TRADITIONAL_NAME>
acetic acid [(2R,3S,4R,5S,6S)-3,4,5-triacetoxy-6-[2-[(2R,3R,4S,5R,6S)-3,4,5-triacetoxy-6-methoxy-tetrahydropyran-2-yl]ethyl]tetrahydropyran-2-yl]methyl ester

> <PUBCHEM_IUPAC_INCHI>
InChI=1S/C28H40O17/c1-12(29)37-11-21-24(40-15(4)32)25(41-16(5)33)22(38-13(2)30)19(44-21)9-10-20-23(39-14(3)31)26(42-17(6)34)27(43-18(7)35)28(36-8)45-20/h19-28H,9-11H2,1-8H3/t19-,20+,21+,22-,23+,24-,25+,26-,27+,28-/m0/s1

> <PUBCHEM_IUPAC_INCHIKEY>
JLZPVHDCPZNCFU-CDBULVNNSA-N

> <PUBCHEM_XLOGP3_AA>
0

> <PUBCHEM_EXACT_MASS>
648.22654980

> <PUBCHEM_MOLECULAR_FORMULA>
C28H40O17

> <PUBCHEM_MOLECULAR_WEIGHT>
648.6

> <PUBCHEM_OPENEYE_CAN_SMILES>
CC(=O)OCC1C(C(C(C(O1)CCC2C(C(C(C(O2)OC)OC(=O)C)OC(=O)C)OC(=O)C)OC(=O)C)OC(=O)C)OC(=O)C

> <PUBCHEM_OPENEYE_ISO_SMILES>
CC(=O)OC[C@@H]1[C@@H]([C@@H]([C@H]([C@@H](O1)CC[C@@H]2[C@H]([C@@H]([C@H]([C@H](O2)OC)OC(=O)C)OC(=O)C)OC(=O)C)OC(=O)C)OC(=O)C)OC(=O)C

> <PUBCHEM_CACTVS_TPSA>
212

> <PUBCHEM_MONOISOTOPIC_WEIGHT>
648.22654980

> <PUBCHEM_TOTAL_CHARGE>
0

> <PUBCHEM_HEAVY_ATOM_COUNT>
45

> <PUBCHEM_ATOM_DEF_STEREO_COUNT>
10

> <PUBCHEM_ATOM_UDEF_STEREO_COUNT>
0

> <PUBCHEM_BOND_DEF_STEREO_COUNT>
0

> <PUBCHEM_BOND_UDEF_STEREO_COUNT>
0

> <PUBCHEM_ISOTOPIC_ATOM_COUNT>
0

> <PUBCHEM_COMPONENT_COUNT>
1

> <PUBCHEM_CACTVS_TAUTO_COUNT>
-1

> <PUBCHEM_COORDINATE_TYPE>
1
5
255

> <PUBCHEM_BONDANNOTATIONS>
18  21  6
20  23  5
26  30  6
19  3  5
22  4  6
24  5  6
25  6  6
27  7  5
28  8  6
29  9  6

$$$$
