 
  -OEChem-10192104192D

 49 48  0     1  0  0  0  0  0999 V2000
    6.8671    0.5950    0.0000 O   0  0  0  0  0  0  0  0  0  0  0  0
    7.7331    0.0950    0.0000 O   0  0  0  0  0  0  0  0  0  0  0  0
   10.3312    0.5950    0.0000 O   0  0  0  0  0  0  0  0  0  0  0  0
    5.1350   -2.4050    0.0000 O   0  0  0  0  0  0  0  0  0  0  0  0
    3.4030    1.5950    0.0000 O   0  0  0  0  0  0  0  0  0  0  0  0
   11.1972   -0.9050    0.0000 O   0  0  0  0  0  0  0  0  0  0  0  0
    6.8671    1.5950    0.0000 O   0  0  0  0  0  0  0  0  0  0  0  0
   10.3312   -2.4050    0.0000 O   0  0  0  0  0  0  0  0  0  0  0  0
    6.0010   -0.9050    0.0000 N   0  0  0  0  0  0  0  0  0  0  0  0
    8.5991   -1.4050    0.0000 N   0  0  0  0  0  0  0  0  0  0  0  0
    5.1350    1.5950    0.0000 N   0  0  0  0  0  0  0  0  0  0  0  0
    6.0010   -3.9050    0.0000 N   0  0  0  0  0  0  0  0  0  0  0  0
    2.5369    0.0950    0.0000 N   0  0  0  0  0  0  0  0  0  0  0  0
    6.8671    3.5950    0.0000 N   0  0  0  0  0  0  0  0  0  0  0  0
    6.8671   -1.4050    0.0000 C   0  0  3  0  0  0  0  0  0  0  0  0
    5.1350    0.5950    0.0000 C   0  0  3  0  0  0  0  0  0  0  0  0
    6.8671   -2.4050    0.0000 C   0  0  0  0  0  0  0  0  0  0  0  0
    6.0010    0.0950    0.0000 C   0  0  0  0  0  0  0  0  0  0  0  0
    7.7331   -0.9050    0.0000 C   0  0  0  0  0  0  0  0  0  0  0  0
    4.2690    0.0950    0.0000 C   0  0  0  0  0  0  0  0  0  0  0  0
    9.4651   -0.9050    0.0000 C   0  0  3  0  0  0  0  0  0  0  0  0
    6.0010   -2.9050    0.0000 C   0  0  0  0  0  0  0  0  0  0  0  0
    9.4651    0.0950    0.0000 C   0  0  0  0  0  0  0  0  0  0  0  0
    3.4030    0.5950    0.0000 C   0  0  0  0  0  0  0  0  0  0  0  0
    6.0010    2.0950    0.0000 C   0  0  0  0  0  0  0  0  0  0  0  0
   10.3312   -1.4050    0.0000 C   0  0  0  0  0  0  0  0  0  0  0  0
    6.0010    3.0950    0.0000 C   0  0  0  0  0  0  0  0  0  0  0  0
    6.3301   -1.7150    0.0000 H   0  0  0  0  0  0  0  0  0  0  0  0
    5.6720    0.9050    0.0000 H   0  0  0  0  0  0  0  0  0  0  0  0
    7.0791   -2.9876    0.0000 H   0  0  0  0  0  0  0  0  0  0  0  0
    7.4776   -2.2973    0.0000 H   0  0  0  0  0  0  0  0  0  0  0  0
    5.4641   -1.2150    0.0000 H   0  0  0  0  0  0  0  0  0  0  0  0
    3.8705   -0.3799    0.0000 H   0  0  0  0  0  0  0  0  0  0  0  0
    4.6675   -0.3799    0.0000 H   0  0  0  0  0  0  0  0  0  0  0  0
    9.4651   -1.5250    0.0000 H   0  0  0  0  0  0  0  0  0  0  0  0
    8.5991   -2.0250    0.0000 H   0  0  0  0  0  0  0  0  0  0  0  0
    4.5981    1.9050    0.0000 H   0  0  0  0  0  0  0  0  0  0  0  0
    9.2531    0.6776    0.0000 H   0  0  0  0  0  0  0  0  0  0  0  0
    8.8546   -0.0127    0.0000 H   0  0  0  0  0  0  0  0  0  0  0  0
    5.7890    3.6776    0.0000 H   0  0  0  0  0  0  0  0  0  0  0  0
    5.3905    2.9873    0.0000 H   0  0  0  0  0  0  0  0  0  0  0  0
    5.4641   -4.2150    0.0000 H   0  0  0  0  0  0  0  0  0  0  0  0
    6.5380   -4.2150    0.0000 H   0  0  0  0  0  0  0  0  0  0  0  0
    2.0000    0.4050    0.0000 H   0  0  0  0  0  0  0  0  0  0  0  0
    2.5369   -0.5250    0.0000 H   0  0  0  0  0  0  0  0  0  0  0  0
   10.3312    1.2150    0.0000 H   0  0  0  0  0  0  0  0  0  0  0  0
    6.8671    4.2150    0.0000 H   0  0  0  0  0  0  0  0  0  0  0  0
    7.4040    3.2850    0.0000 H   0  0  0  0  0  0  0  0  0  0  0  0
   11.7341   -1.2150    0.0000 H   0  0  0  0  0  0  0  0  0  0  0  0
  1 18  2  0  0  0  0
  2 19  2  0  0  0  0
  3 23  1  0  0  0  0
  3 46  1  0  0  0  0
  4 22  2  0  0  0  0
  5 24  2  0  0  0  0
  6 26  1  0  0  0  0
  6 49  1  0  0  0  0
  7 25  2  0  0  0  0
  8 26  2  0  0  0  0
  9 15  1  0  0  0  0
  9 18  1  0  0  0  0
  9 32  1  0  0  0  0
 10 19  1  0  0  0  0
 10 21  1  0  0  0  0
 10 36  1  0  0  0  0
 11 16  1  0  0  0  0
 11 25  1  0  0  0  0
 11 37  1  0  0  0  0
 12 22  1  0  0  0  0
 12 42  1  0  0  0  0
 12 43  1  0  0  0  0
 13 24  1  0  0  0  0
 13 44  1  0  0  0  0
 13 45  1  0  0  0  0
 14 27  1  0  0  0  0
 14 47  1  0  0  0  0
 14 48  1  0  0  0  0
 15 17  1  0  0  0  0
 15 19  1  0  0  0  0
 15 28  1  0  0  0  0
 16 18  1  0  0  0  0
 16 20  1  0  0  0  0
 16 29  1  0  0  0  0
 17 22  1  0  0  0  0
 17 30  1  0  0  0  0
 17 31  1  0  0  0  0
 20 24  1  0  0  0  0
 20 33  1  0  0  0  0
 20 34  1  0  0  0  0
 21 23  1  0  0  0  0
 21 26  1  0  0  0  0
 21 35  1  0  0  0  0
 23 38  1  0  0  0  0
 23 39  1  0  0  0  0
 25 27  1  0  0  0  0
 27 40  1  0  0  0  0
 27 41  1  0  0  0  0
M  END
> <PUBCHEM_COMPOUND_CID>
18485592

> <PUBCHEM_COMPOUND_CANONICALIZED>
1

> <PUBCHEM_CACTVS_COMPLEXITY>
610

> <PUBCHEM_CACTVS_HBOND_ACCEPTOR>
9

> <PUBCHEM_CACTVS_HBOND_DONOR>
8

> <PUBCHEM_CACTVS_ROTATABLE_BOND>
12

> <PUBCHEM_CACTVS_SUBSKEYS>
AAADceBzvAAAAAAAAAAAAAAAAAAAAAAAAAAAAAAAAAAAAAAAAAAAHgAQCAAACCjhgAYACALAAgAIAAGQGAAAAAAAAAAAAIGIAAACUBwAwCAUQAABNgCQAAAFAAAAAAAAAAAAAAAAAAAAAAAAAAAAAAAAAA==

> <PUBCHEM_IUPAC_OPENEYE_NAME>
2-[[4-amino-2-[[4-amino-2-[(2-aminoacetyl)amino]-4-oxo-butanoyl]amino]-4-oxo-butanoyl]amino]-3-hydroxy-propanoic acid

> <PUBCHEM_IUPAC_CAS_NAME>
2-[[4-amino-2-[[4-amino-2-[(2-amino-1-oxoethyl)amino]-1,4-dioxobutyl]amino]-1,4-dioxobutyl]amino]-3-hydroxypropanoic acid

> <PUBCHEM_IUPAC_NAME_MARKUP>
2-[[4-amino-2-[[4-amino-2-[(2-aminoacetyl)amino]-4-oxobutanoyl]amino]-4-oxobutanoyl]amino]-3-hydroxypropanoic acid

> <PUBCHEM_IUPAC_NAME>
2-[[4-amino-2-[[4-amino-2-[(2-aminoacetyl)amino]-4-oxobutanoyl]amino]-4-oxobutanoyl]amino]-3-hydroxypropanoic acid

> <PUBCHEM_IUPAC_SYSTEMATIC_NAME>
2-[[4-azanyl-2-[[4-azanyl-2-(2-azanylethanoylamino)-4-oxidanylidene-butanoyl]amino]-4-oxidanylidene-butanoyl]amino]-3-oxidanyl-propanoic acid

> <PUBCHEM_IUPAC_TRADITIONAL_NAME>
2-[[4-amino-2-[[4-amino-2-(glycylamino)-4-keto-butanoyl]amino]-4-keto-butanoyl]amino]-3-hydroxy-propionic acid

> <PUBCHEM_IUPAC_INCHI>
InChI=1S/C13H22N6O8/c14-3-10(23)17-5(1-8(15)21)11(24)18-6(2-9(16)22)12(25)19-7(4-20)13(26)27/h5-7,20H,1-4,14H2,(H2,15,21)(H2,16,22)(H,17,23)(H,18,24)(H,19,25)(H,26,27)

> <PUBCHEM_IUPAC_INCHIKEY>
MMSCTVQZJLGTIR-UHFFFAOYSA-N

> <PUBCHEM_XLOGP3_AA>
-8.2

> <PUBCHEM_EXACT_MASS>
390.14991168

> <PUBCHEM_MOLECULAR_FORMULA>
C13H22N6O8

> <PUBCHEM_MOLECULAR_WEIGHT>
390.35

> <PUBCHEM_OPENEYE_CAN_SMILES>
C(C(C(=O)NC(CC(=O)N)C(=O)NC(CO)C(=O)O)NC(=O)CN)C(=O)N

> <PUBCHEM_OPENEYE_ISO_SMILES>
C(C(C(=O)NC(CC(=O)N)C(=O)NC(CO)C(=O)O)NC(=O)CN)C(=O)N

> <PUBCHEM_CACTVS_TPSA>
257

> <PUBCHEM_MONOISOTOPIC_WEIGHT>
390.14991168

> <PUBCHEM_TOTAL_CHARGE>
0

> <PUBCHEM_HEAVY_ATOM_COUNT>
27

> <PUBCHEM_ATOM_DEF_STEREO_COUNT>
0

> <PUBCHEM_ATOM_UDEF_STEREO_COUNT>
3

> <PUBCHEM_BOND_DEF_STEREO_COUNT>
0

> <PUBCHEM_BOND_UDEF_STEREO_COUNT>
0

> <PUBCHEM_ISOTOPIC_ATOM_COUNT>
0

> <PUBCHEM_COMPONENT_COUNT>
1

> <PUBCHEM_CACTVS_TAUTO_COUNT>
-1

> <PUBCHEM_COORDINATE_TYPE>
1
5
255

> <PUBCHEM_BONDANNOTATIONS>
15  17  3
16  20  3
21  23  3

$$$$
