 
  -OEChem-10192103592D

 62 64  0     1  0  0  0  0  0999 V2000
    9.6602    0.7306    0.0000 O   0  0  0  0  0  0  0  0  0  0  0  0
   10.6603   -0.2694    0.0000 O   0  0  0  0  0  0  0  0  0  0  0  0
    8.9282   -0.2694    0.0000 O   0  0  0  0  0  0  0  0  0  0  0  0
   11.9203    1.9906    0.0000 O   0  0  0  0  0  0  0  0  0  0  0  0
   10.1603    3.2694    0.0000 O   0  0  0  0  0  0  0  0  0  0  0  0
   10.6603   -2.2694    0.0000 O   0  0  0  0  0  0  0  0  0  0  0  0
    8.9282   -3.2694    0.0000 O   0  0  0  0  0  0  0  0  0  0  0  0
    7.1962   -2.2694    0.0000 O   0  0  0  0  0  0  0  0  0  0  0  0
   12.3545    1.0907    0.0000 O   0  0  0  0  0  0  0  0  0  0  0  0
    8.1923    2.9688    0.0000 O   0  0  0  0  0  0  0  0  0  0  0  0
    6.3301   -0.7694    0.0000 O   0  0  0  0  0  0  0  0  0  0  0  0
    5.4641    0.7306    0.0000 O   0  0  0  0  0  0  0  0  0  0  0  0
    2.0000   -0.2694    0.0000 O   0  0  0  0  0  0  0  0  0  0  0  0
    2.0000   -2.2694    0.0000 O   0  0  0  0  0  0  0  0  0  0  0  0
   10.6603    0.7306    0.0000 C   0  0  2  0  0  0  0  0  0  0  0  0
   10.9693    1.6816    0.0000 C   0  0  1  0  0  0  0  0  0  0  0  0
   10.1603    2.2694    0.0000 C   0  0  2  0  0  0  0  0  0  0  0  0
    9.3512    1.6816    0.0000 C   0  0  2  0  0  0  0  0  0  0  0  0
    9.7942   -0.7694    0.0000 C   0  0  1  0  0  0  0  0  0  0  0  0
    9.7942   -1.7694    0.0000 C   0  0  1  0  0  0  0  0  0  0  0  0
    8.9282   -2.2694    0.0000 C   0  0  2  0  0  0  0  0  0  0  0  0
    8.0622   -1.7694    0.0000 C   0  0  1  0  0  0  0  0  0  0  0  0
    8.0622   -0.7694    0.0000 C   0  0  1  0  0  0  0  0  0  0  0  0
   11.6113    0.4216    0.0000 C   0  0  0  0  0  0  0  0  0  0  0  0
    8.4002    1.9906    0.0000 C   0  0  0  0  0  0  0  0  0  0  0  0
    7.1962   -0.2694    0.0000 C   0  0  0  0  0  0  0  0  0  0  0  0
    5.4641   -0.2694    0.0000 C   0  0  0  0  0  0  0  0  0  0  0  0
    4.5981   -0.7694    0.0000 C   0  0  0  0  0  0  0  0  0  0  0  0
    3.7320   -0.2694    0.0000 C   0  0  0  0  0  0  0  0  0  0  0  0
    4.5981   -1.7694    0.0000 C   0  0  0  0  0  0  0  0  0  0  0  0
    2.8660   -0.7694    0.0000 C   0  0  0  0  0  0  0  0  0  0  0  0
    3.7320   -2.2694    0.0000 C   0  0  0  0  0  0  0  0  0  0  0  0
    2.8660   -1.7694    0.0000 C   0  0  0  0  0  0  0  0  0  0  0  0
    2.0000    0.7306    0.0000 C   0  0  0  0  0  0  0  0  0  0  0  0
   11.0663    2.2940    0.0000 H   0  0  0  0  0  0  0  0  0  0  0  0
   10.7127    2.5509    0.0000 H   0  0  0  0  0  0  0  0  0  0  0  0
    8.9128    1.2432    0.0000 H   0  0  0  0  0  0  0  0  0  0  0  0
    9.7942   -0.1494    0.0000 H   0  0  0  0  0  0  0  0  0  0  0  0
    9.7942   -2.3894    0.0000 H   0  0  0  0  0  0  0  0  0  0  0  0
    8.3913   -2.5794    0.0000 H   0  0  0  0  0  0  0  0  0  0  0  0
    7.5252   -1.4594    0.0000 H   0  0  0  0  0  0  0  0  0  0  0  0
    8.0622   -0.1494    0.0000 H   0  0  0  0  0  0  0  0  0  0  0  0
   11.3202   -0.1259    0.0000 H   0  0  0  0  0  0  0  0  0  0  0  0
   12.0999    0.0399    0.0000 H   0  0  0  0  0  0  0  0  0  0  0  0
    7.7806    1.9690    0.0000 H   0  0  0  0  0  0  0  0  0  0  0  0
    8.3139    1.3767    0.0000 H   0  0  0  0  0  0  0  0  0  0  0  0
    7.5947    0.2055    0.0000 H   0  0  0  0  0  0  0  0  0  0  0  0
    6.7976    0.2055    0.0000 H   0  0  0  0  0  0  0  0  0  0  0  0
   12.0492    2.5971    0.0000 H   0  0  0  0  0  0  0  0  0  0  0  0
   10.6972    3.5794    0.0000 H   0  0  0  0  0  0  0  0  0  0  0  0
   10.6603   -2.8894    0.0000 H   0  0  0  0  0  0  0  0  0  0  0  0
    8.3913   -3.5794    0.0000 H   0  0  0  0  0  0  0  0  0  0  0  0
    7.1962   -2.8894    0.0000 H   0  0  0  0  0  0  0  0  0  0  0  0
   12.9441    0.8991    0.0000 H   0  0  0  0  0  0  0  0  0  0  0  0
    7.6026    3.1604    0.0000 H   0  0  0  0  0  0  0  0  0  0  0  0
    3.7320    0.3506    0.0000 H   0  0  0  0  0  0  0  0  0  0  0  0
    5.1350   -2.0794    0.0000 H   0  0  0  0  0  0  0  0  0  0  0  0
    3.7320   -2.8894    0.0000 H   0  0  0  0  0  0  0  0  0  0  0  0
    2.0000   -2.8894    0.0000 H   0  0  0  0  0  0  0  0  0  0  0  0
    2.6200    0.7306    0.0000 H   0  0  0  0  0  0  0  0  0  0  0  0
    2.0000    1.3506    0.0000 H   0  0  0  0  0  0  0  0  0  0  0  0
    1.3800    0.7306    0.0000 H   0  0  0  0  0  0  0  0  0  0  0  0
  1 15  1  0  0  0  0
  1 18  1  0  0  0  0
 15  2  1  1  0  0  0
 19  2  1  6  0  0  0
  3 19  1  0  0  0  0
  3 23  1  0  0  0  0
 16  4  1  1  0  0  0
  4 49  1  0  0  0  0
 17  5  1  6  0  0  0
  5 50  1  0  0  0  0
 20  6  1  6  0  0  0
  6 51  1  0  0  0  0
 21  7  1  1  0  0  0
  7 52  1  0  0  0  0
 22  8  1  6  0  0  0
  8 53  1  0  0  0  0
  9 24  1  0  0  0  0
  9 54  1  0  0  0  0
 10 25  1  0  0  0  0
 10 55  1  0  0  0  0
 11 26  1  0  0  0  0
 11 27  1  0  0  0  0
 12 27  2  0  0  0  0
 13 31  1  0  0  0  0
 13 34  1  0  0  0  0
 14 33  1  0  0  0  0
 14 59  1  0  0  0  0
 15 16  1  0  0  0  0
 15 24  1  0  0  0  0
 16 17  1  0  0  0  0
 16 35  1  0  0  0  0
 17 18  1  0  0  0  0
 17 36  1  0  0  0  0
 18 25  1  1  0  0  0
 18 37  1  0  0  0  0
 19 20  1  0  0  0  0
 19 38  1  0  0  0  0
 20 21  1  0  0  0  0
 20 39  1  0  0  0  0
 21 22  1  0  0  0  0
 21 40  1  0  0  0  0
 22 23  1  0  0  0  0
 22 41  1  0  0  0  0
 23 26  1  1  0  0  0
 23 42  1  0  0  0  0
 24 43  1  0  0  0  0
 24 44  1  0  0  0  0
 25 45  1  0  0  0  0
 25 46  1  0  0  0  0
 26 47  1  0  0  0  0
 26 48  1  0  0  0  0
 27 28  1  0  0  0  0
 28 29  2  0  0  0  0
 28 30  1  0  0  0  0
 29 31  1  0  0  0  0
 29 56  1  0  0  0  0
 30 32  2  0  0  0  0
 30 57  1  0  0  0  0
 31 33  2  0  0  0  0
 32 33  1  0  0  0  0
 32 58  1  0  0  0  0
 34 60  1  0  0  0  0
 34 61  1  0  0  0  0
 34 62  1  0  0  0  0
M  END
> <PUBCHEM_COMPOUND_CID>
51136426

> <PUBCHEM_COMPOUND_CANONICALIZED>
1

> <PUBCHEM_CACTVS_COMPLEXITY>
680

> <PUBCHEM_CACTVS_HBOND_ACCEPTOR>
14

> <PUBCHEM_CACTVS_HBOND_DONOR>
8

> <PUBCHEM_CACTVS_ROTATABLE_BOND>
9

> <PUBCHEM_CACTVS_SUBSKEYS>
AAADceB4PAAAAAAAAAAAAAAAAAAAASAAAAA0QAAAAAAAAAABAAAAGgAACAAADBSwmAMyDoAABgCIAiDSCAACCAAkIAAIiAEGiMgdNjKGNRqicSMlwBEPuYfK7DzOIAABAAAAQABAAAIAAACAAAAAAAAAAA==

> <PUBCHEM_IUPAC_OPENEYE_NAME>
[(2R,3S,4S,5R,6R)-6-[(2R,3R,4R,5S)-3,4-dihydroxy-2,5-bis(hydroxymethyl)tetrahydrofuran-2-yl]oxy-3,4,5-trihydroxy-tetrahydropyran-2-yl]methyl 4-hydroxy-3-methoxy-benzoate

> <PUBCHEM_IUPAC_CAS_NAME>
4-hydroxy-3-methoxybenzoic acid [(2R,3S,4S,5R,6R)-6-[[(2R,3R,4R,5S)-3,4-dihydroxy-2,5-bis(hydroxymethyl)-2-oxolanyl]oxy]-3,4,5-trihydroxy-2-oxanyl]methyl ester

> <PUBCHEM_IUPAC_NAME_MARKUP>
[(2<I>R</I>,3<I>S</I>,4<I>S</I>,5<I>R</I>,6<I>R</I>)-6-[(2<I>R</I>,3<I>R</I>,4<I>R</I>,5<I>S</I>)-3,4-dihydroxy-2,5-bis(hydroxymethyl)oxolan-2-yl]oxy-3,4,5-trihydroxyoxan-2-yl]methyl 4-hydroxy-3-methoxybenzoate

> <PUBCHEM_IUPAC_NAME>
[(2R,3S,4S,5R,6R)-6-[(2R,3R,4R,5S)-3,4-dihydroxy-2,5-bis(hydroxymethyl)oxolan-2-yl]oxy-3,4,5-trihydroxyoxan-2-yl]methyl 4-hydroxy-3-methoxybenzoate

> <PUBCHEM_IUPAC_SYSTEMATIC_NAME>
[(2R,3S,4S,5R,6R)-6-[(2R,3R,4R,5S)-2,5-bis(hydroxymethyl)-3,4-bis(oxidanyl)oxolan-2-yl]oxy-3,4,5-tris(oxidanyl)oxan-2-yl]methyl 3-methoxy-4-oxidanyl-benzoate

> <PUBCHEM_IUPAC_TRADITIONAL_NAME>
4-hydroxy-3-methoxy-benzoic acid [(2R,3S,4S,5R,6R)-6-[(2R,3R,4R,5S)-3,4-dihydroxy-2,5-dimethylol-tetrahydrofuran-2-yl]oxy-3,4,5-trihydroxy-tetrahydropyran-2-yl]methyl ester

> <PUBCHEM_IUPAC_INCHI>
InChI=1S/C20H28O14/c1-30-10-4-8(2-3-9(10)23)18(29)31-6-12-13(24)15(26)16(27)19(32-12)34-20(7-22)17(28)14(25)11(5-21)33-20/h2-4,11-17,19,21-28H,5-7H2,1H3/t11-,12+,13+,14-,15-,16+,17+,19+,20+/m0/s1

> <PUBCHEM_IUPAC_INCHIKEY>
CFTZBGSPPBNRNF-GXFVINSESA-N

> <PUBCHEM_XLOGP3>
-2.4

> <PUBCHEM_EXACT_MASS>
492.14790556

> <PUBCHEM_MOLECULAR_FORMULA>
C20H28O14

> <PUBCHEM_MOLECULAR_WEIGHT>
492.4

> <PUBCHEM_OPENEYE_CAN_SMILES>
COC1=C(C=CC(=C1)C(=O)OCC2C(C(C(C(O2)OC3(C(C(C(O3)CO)O)O)CO)O)O)O)O

> <PUBCHEM_OPENEYE_ISO_SMILES>
COC1=C(C=CC(=C1)C(=O)OC[C@@H]2[C@H]([C@@H]([C@H]([C@H](O2)O[C@@]3([C@@H]([C@H]([C@@H](O3)CO)O)O)CO)O)O)O)O

> <PUBCHEM_CACTVS_TPSA>
225

> <PUBCHEM_MONOISOTOPIC_WEIGHT>
492.14790556

> <PUBCHEM_TOTAL_CHARGE>
0

> <PUBCHEM_HEAVY_ATOM_COUNT>
34

> <PUBCHEM_ATOM_DEF_STEREO_COUNT>
9

> <PUBCHEM_ATOM_UDEF_STEREO_COUNT>
0

> <PUBCHEM_BOND_DEF_STEREO_COUNT>
0

> <PUBCHEM_BOND_UDEF_STEREO_COUNT>
0

> <PUBCHEM_ISOTOPIC_ATOM_COUNT>
0

> <PUBCHEM_COMPONENT_COUNT>
1

> <PUBCHEM_CACTVS_TAUTO_COUNT>
-1

> <PUBCHEM_COORDINATE_TYPE>
1
5
255

> <PUBCHEM_BONDANNOTATIONS>
18  25  5
15  2  5
19  2  6
23  26  5
28  29  8
28  30  8
29  31  8
30  32  8
31  33  8
32  33  8
16  4  5
17  5  6
20  6  6
21  7  5
22  8  6

$$$$
