 
  -OEChem-10192104092D

 63 67  0     1  0  0  0  0  0999 V2000
    6.4625   -5.5142    0.0000 S   0  0  0  0  0  0  0  0  0  0  0  0
    2.0000    3.7523    0.0000 S   0  0  0  0  0  0  0  0  0  0  0  0
    5.9888   -1.0345    0.0000 O   0  0  0  0  0  0  0  0  0  0  0  0
    5.2069    0.5889    0.0000 O   0  0  0  0  0  0  0  0  0  0  0  0
    3.6085   -2.2173    0.0000 O   0  0  0  0  0  0  0  0  0  0  0  0
    2.7981   -0.5345    0.0000 O   0  0  0  0  0  0  0  0  0  0  0  0
    6.3850   -2.9277    0.0000 O   0  0  0  0  0  0  0  0  0  0  0  0
    3.9739    2.0791    0.0000 O   0  0  0  0  0  0  0  0  0  0  0  0
   10.1024   -2.7570    0.0000 O   0  0  0  0  0  0  0  0  0  0  0  0
    6.4251    4.8790    0.0000 O   0  0  0  0  0  0  0  0  0  0  0  0
    8.3855   -3.7828    0.0000 N   0  0  0  0  0  0  0  0  0  0  0  0
    4.5526    4.1763    0.0000 N   0  0  0  0  0  0  0  0  0  0  0  0
    5.9496   -4.6557    0.0000 N   0  0  0  0  0  0  0  0  0  0  0  0
    2.3514    2.8161    0.0000 N   0  0  0  0  0  0  0  0  0  0  0  0
    7.4374   -5.2916    0.0000 N   0  0  0  0  0  0  0  0  0  0  0  0
    2.7818    4.3758    0.0000 N   0  0  0  0  0  0  0  0  0  0  0  0
    4.2320   -1.4355    0.0000 C   0  0  3  0  0  0  0  0  0  0  0  0
    3.7981   -0.5345    0.0000 C   0  0  3  0  0  0  0  0  0  0  0  0
    5.2069   -1.6580    0.0000 C   0  0  3  0  0  0  0  0  0  0  0  0
    4.2320    0.3664    0.0000 C   0  0  3  0  0  0  0  0  0  0  0  0
    5.4295   -2.6330    0.0000 C   0  0  0  0  0  0  0  0  0  0  0  0
    3.6085    1.1483    0.0000 C   0  0  0  0  0  0  0  0  0  0  0  0
    5.9888   -0.0345    0.0000 C   0  0  0  0  0  0  0  0  0  0  0  0
    9.2589   -4.2698    0.0000 C   0  0  0  0  0  0  0  0  0  0  0  0
    8.3706   -2.7829    0.0000 C   0  0  0  0  0  0  0  0  0  0  0  0
    4.7165    5.1628    0.0000 C   0  0  0  0  0  0  0  0  0  0  0  0
    5.3251    3.5412    0.0000 C   0  0  0  0  0  0  0  0  0  0  0  0
    6.6076   -3.9026    0.0000 C   0  0  0  0  0  0  0  0  0  0  0  0
    3.3504    2.8610    0.0000 C   0  0  0  0  0  0  0  0  0  0  0  0
    7.5271   -4.2957    0.0000 C   0  0  0  0  0  0  0  0  0  0  0  0
    3.6164    3.8249    0.0000 C   0  0  0  0  0  0  0  0  0  0  0  0
   10.1174   -3.7569    0.0000 C   0  0  0  0  0  0  0  0  0  0  0  0
    9.2290   -2.2700    0.0000 C   0  0  0  0  0  0  0  0  0  0  0  0
    5.6527    5.5142    0.0000 C   0  0  0  0  0  0  0  0  0  0  0  0
    6.2613    3.8926    0.0000 C   0  0  0  0  0  0  0  0  0  0  0  0
    4.4368   -2.0207    0.0000 H   0  0  0  0  0  0  0  0  0  0  0  0
    3.4683   -1.0595    0.0000 H   0  0  0  0  0  0  0  0  0  0  0  0
    5.7921   -1.8628    0.0000 H   0  0  0  0  0  0  0  0  0  0  0  0
    4.4368    0.9516    0.0000 H   0  0  0  0  0  0  0  0  0  0  0  0
    4.8102   -2.6639    0.0000 H   0  0  0  0  0  0  0  0  0  0  0  0
    5.3524   -3.2482    0.0000 H   0  0  0  0  0  0  0  0  0  0  0  0
    3.0795    1.4716    0.0000 H   0  0  0  0  0  0  0  0  0  0  0  0
    3.1983    0.6834    0.0000 H   0  0  0  0  0  0  0  0  0  0  0  0
    6.5932   -0.1725    0.0000 H   0  0  0  0  0  0  0  0  0  0  0  0
    6.2578    0.5241    0.0000 H   0  0  0  0  0  0  0  0  0  0  0  0
    2.9954   -2.1249    0.0000 H   0  0  0  0  0  0  0  0  0  0  0  0
    2.4881    0.0024    0.0000 H   0  0  0  0  0  0  0  0  0  0  0  0
    8.8676   -4.7506    0.0000 H   0  0  0  0  0  0  0  0  0  0  0  0
    9.6645   -4.7387    0.0000 H   0  0  0  0  0  0  0  0  0  0  0  0
    8.1498   -2.2035    0.0000 H   0  0  0  0  0  0  0  0  0  0  0  0
    7.7617   -2.8997    0.0000 H   0  0  0  0  0  0  0  0  0  0  0  0
    4.6027    5.7723    0.0000 H   0  0  0  0  0  0  0  0  0  0  0  0
    4.0965    5.1566    0.0000 H   0  0  0  0  0  0  0  0  0  0  0  0
    4.8541    3.1379    0.0000 H   0  0  0  0  0  0  0  0  0  0  0  0
    5.6404    3.0074    0.0000 H   0  0  0  0  0  0  0  0  0  0  0  0
   10.3381   -4.3362    0.0000 H   0  0  0  0  0  0  0  0  0  0  0  0
   10.7263   -3.6401    0.0000 H   0  0  0  0  0  0  0  0  0  0  0  0
    9.6204   -1.7891    0.0000 H   0  0  0  0  0  0  0  0  0  0  0  0
    8.8234   -1.8010    0.0000 H   0  0  0  0  0  0  0  0  0  0  0  0
    6.1236    5.9174    0.0000 H   0  0  0  0  0  0  0  0  0  0  0  0
    5.3374    6.0480    0.0000 H   0  0  0  0  0  0  0  0  0  0  0  0
    6.3750    3.2831    0.0000 H   0  0  0  0  0  0  0  0  0  0  0  0
    6.8813    3.8987    0.0000 H   0  0  0  0  0  0  0  0  0  0  0  0
  1 13  1  0  0  0  0
  1 15  1  0  0  0  0
  2 14  1  0  0  0  0
  2 16  1  0  0  0  0
  3 19  1  0  0  0  0
  3 23  1  0  0  0  0
  4 20  1  0  0  0  0
  4 23  1  0  0  0  0
  5 17  1  0  0  0  0
  5 46  1  0  0  0  0
  6 18  1  0  0  0  0
  6 47  1  0  0  0  0
  7 21  1  0  0  0  0
  7 28  1  0  0  0  0
  8 22  1  0  0  0  0
  8 29  1  0  0  0  0
  9 32  1  0  0  0  0
  9 33  1  0  0  0  0
 10 34  1  0  0  0  0
 10 35  1  0  0  0  0
 11 24  1  0  0  0  0
 11 25  1  0  0  0  0
 11 30  1  0  0  0  0
 12 26  1  0  0  0  0
 12 27  1  0  0  0  0
 12 31  1  0  0  0  0
 13 28  2  0  0  0  0
 14 29  2  0  0  0  0
 15 30  2  0  0  0  0
 16 31  2  0  0  0  0
 17 18  1  0  0  0  0
 17 19  1  0  0  0  0
 17 36  1  0  0  0  0
 18 20  1  0  0  0  0
 18 37  1  0  0  0  0
 19 21  1  0  0  0  0
 19 38  1  0  0  0  0
 20 22  1  0  0  0  0
 20 39  1  0  0  0  0
 21 40  1  0  0  0  0
 21 41  1  0  0  0  0
 22 42  1  0  0  0  0
 22 43  1  0  0  0  0
 23 44  1  0  0  0  0
 23 45  1  0  0  0  0
 24 32  1  0  0  0  0
 24 48  1  0  0  0  0
 24 49  1  0  0  0  0
 25 33  1  0  0  0  0
 25 50  1  0  0  0  0
 25 51  1  0  0  0  0
 26 34  1  0  0  0  0
 26 52  1  0  0  0  0
 26 53  1  0  0  0  0
 27 35  1  0  0  0  0
 27 54  1  0  0  0  0
 27 55  1  0  0  0  0
 28 30  1  0  0  0  0
 29 31  1  0  0  0  0
 32 56  1  0  0  0  0
 32 57  1  0  0  0  0
 33 58  1  0  0  0  0
 33 59  1  0  0  0  0
 34 60  1  0  0  0  0
 34 61  1  0  0  0  0
 35 62  1  0  0  0  0
 35 63  1  0  0  0  0
M  END
> <PUBCHEM_COMPOUND_CID>
537280

> <PUBCHEM_COMPOUND_CANONICALIZED>
1

> <PUBCHEM_CACTVS_COMPLEXITY>
601

> <PUBCHEM_CACTVS_HBOND_ACCEPTOR>
16

> <PUBCHEM_CACTVS_HBOND_DONOR>
2

> <PUBCHEM_CACTVS_ROTATABLE_BOND>
8

> <PUBCHEM_CACTVS_SUBSKEYS>
AAADceB7vABgAAAAAAAAAAAAAAAAAWLAAAAsWAAABIAAAAAB4AAAHgAASAAACBThggcBvBMABgCgAAIgYAQACAQBUAABAAAJEACXUAIACAA7SACFAAKXAAHAYAwAAAAAAAAAAAAAAAAAAAAAAAAAAAAAAA==

> <PUBCHEM_IUPAC_OPENEYE_NAME>
4,7-bis[(4-morpholino-1,2,5-thiadiazol-3-yl)oxymethyl]-1,3-dioxepane-5,6-diol

> <PUBCHEM_IUPAC_CAS_NAME>
4,7-bis[[4-(4-morpholinyl)-1,2,5-thiadiazol-3-yl]oxymethyl]-1,3-dioxepane-5,6-diol

> <PUBCHEM_IUPAC_NAME_MARKUP>
4,7-bis[(4-morpholin-4-yl-1,2,5-thiadiazol-3-yl)oxymethyl]-1,3-dioxepane-5,6-diol

> <PUBCHEM_IUPAC_NAME>
4,7-bis[(4-morpholin-4-yl-1,2,5-thiadiazol-3-yl)oxymethyl]-1,3-dioxepane-5,6-diol

> <PUBCHEM_IUPAC_SYSTEMATIC_NAME>
4,7-bis[(4-morpholin-4-yl-1,2,5-thiadiazol-3-yl)oxymethyl]-1,3-dioxepane-5,6-diol

> <PUBCHEM_IUPAC_TRADITIONAL_NAME>
4,7-bis[(4-morpholino-1,2,5-thiadiazol-3-yl)oxymethyl]-1,3-dioxepane-5,6-diol

> <PUBCHEM_IUPAC_INCHI>
InChI=1S/C19H28N6O8S2/c26-14-12(9-30-18-16(20-34-22-18)24-1-5-28-6-2-24)32-11-33-13(15(14)27)10-31-19-17(21-35-23-19)25-3-7-29-8-4-25/h12-15,26-27H,1-11H2

> <PUBCHEM_IUPAC_INCHIKEY>
MDHXOQUTRDJFLS-UHFFFAOYSA-N

> <PUBCHEM_XLOGP3_AA>
-0.2

> <PUBCHEM_EXACT_MASS>
532.14100422

> <PUBCHEM_MOLECULAR_FORMULA>
C19H28N6O8S2

> <PUBCHEM_MOLECULAR_WEIGHT>
532.6

> <PUBCHEM_OPENEYE_CAN_SMILES>
C1COCCN1C2=NSN=C2OCC3C(C(C(OCO3)COC4=NSN=C4N5CCOCC5)O)O

> <PUBCHEM_OPENEYE_ISO_SMILES>
C1COCCN1C2=NSN=C2OCC3C(C(C(OCO3)COC4=NSN=C4N5CCOCC5)O)O

> <PUBCHEM_CACTVS_TPSA>
210

> <PUBCHEM_MONOISOTOPIC_WEIGHT>
532.14100422

> <PUBCHEM_TOTAL_CHARGE>
0

> <PUBCHEM_HEAVY_ATOM_COUNT>
35

> <PUBCHEM_ATOM_DEF_STEREO_COUNT>
0

> <PUBCHEM_ATOM_UDEF_STEREO_COUNT>
4

> <PUBCHEM_BOND_DEF_STEREO_COUNT>
0

> <PUBCHEM_BOND_UDEF_STEREO_COUNT>
0

> <PUBCHEM_ISOTOPIC_ATOM_COUNT>
0

> <PUBCHEM_COMPONENT_COUNT>
1

> <PUBCHEM_CACTVS_TAUTO_COUNT>
-1

> <PUBCHEM_COORDINATE_TYPE>
1
5
255

> <PUBCHEM_BONDANNOTATIONS>
1  13  8
1  15  8
13  28  8
14  29  8
15  30  8
16  31  8
19  21  3
2  14  8
2  16  8
20  22  3
28  30  8
29  31  8
17  5  3
18  6  3

$$$$
