 
  -OEChem-10192104132D

 91 94  0     1  0  0  0  0  0999 V2000
    5.4641   -1.8450    0.0000 O   0  0  0  0  0  0  0  0  0  0  0  0
    7.1962   -1.8450    0.0000 O   0  0  0  0  0  0  0  0  0  0  0  0
    3.7320   -3.8450    0.0000 O   0  0  0  0  0  0  0  0  0  0  0  0
    5.4641   -4.8450    0.0000 O   0  0  0  0  0  0  0  0  0  0  0  0
    7.1962   -3.8450    0.0000 O   0  0  0  0  0  0  0  0  0  0  0  0
    2.8660   -2.3450    0.0000 O   0  0  0  0  0  0  0  0  0  0  0  0
    5.4641    1.1550    0.0000 O   0  0  0  0  0  0  0  0  0  0  0  0
    9.7942   -0.3450    0.0000 O   0  0  0  0  0  0  0  0  0  0  0  0
    8.9282   -1.8450    0.0000 O   0  0  0  0  0  0  0  0  0  0  0  0
    6.3301    2.6550    0.0000 O   0  0  0  0  0  0  0  0  0  0  0  0
    3.7320    1.1550    0.0000 O   0  0  0  0  0  0  0  0  0  0  0  0
   11.5263   -3.3450    0.0000 O   0  0  0  0  0  0  0  0  0  0  0  0
    2.0000    4.1550    0.0000 O   0  0  0  0  0  0  0  0  0  0  0  0
   13.2583   -3.3450    0.0000 O   0  0  0  0  0  0  0  0  0  0  0  0
   16.7224   -2.3450    0.0000 O   0  0  0  0  0  0  0  0  0  0  0  0
   15.8564   -0.8450    0.0000 O   0  0  0  0  0  0  0  0  0  0  0  0
   14.1244   -1.8450    0.0000 N   0  0  0  0  0  0  0  0  0  0  0  0
    4.5981   -3.3450    0.0000 C   0  0  1  0  0  0  0  0  0  0  0  0
    5.4641   -3.8450    0.0000 C   0  0  1  0  0  0  0  0  0  0  0  0
    4.5981   -2.3450    0.0000 C   0  0  1  0  0  0  0  0  0  0  0  0
    6.3301   -3.3450    0.0000 C   0  0  2  0  0  0  0  0  0  0  0  0
    6.3301   -2.3450    0.0000 C   0  0  1  0  0  0  0  0  0  0  0  0
    3.7320   -1.8450    0.0000 C   0  0  0  0  0  0  0  0  0  0  0  0
    7.1962   -0.8450    0.0000 C   0  0  0  0  0  0  0  0  0  0  0  0
    8.0622   -0.3450    0.0000 C   0  0  0  0  0  0  0  0  0  0  0  0
    6.3301   -0.3450    0.0000 C   0  0  0  0  0  0  0  0  0  0  0  0
    8.0622    0.6550    0.0000 C   0  0  0  0  0  0  0  0  0  0  0  0
    6.3301    0.6550    0.0000 C   0  0  0  0  0  0  0  0  0  0  0  0
    7.1962    1.1550    0.0000 C   0  0  0  0  0  0  0  0  0  0  0  0
    8.9282   -0.8450    0.0000 C   0  0  0  0  0  0  0  0  0  0  0  0
    8.9282    1.1550    0.0000 C   0  0  0  0  0  0  0  0  0  0  0  0
   10.6603   -0.8450    0.0000 C   0  0  0  0  0  0  0  0  0  0  0  0
    5.4641    2.1550    0.0000 C   0  0  0  0  0  0  0  0  0  0  0  0
    4.5981    2.6550    0.0000 C   0  0  0  0  0  0  0  0  0  0  0  0
   11.5263   -0.3450    0.0000 C   0  0  0  0  0  0  0  0  0  0  0  0
   10.6603   -1.8450    0.0000 C   0  0  0  0  0  0  0  0  0  0  0  0
   12.3923   -0.8450    0.0000 C   0  0  0  0  0  0  0  0  0  0  0  0
   12.3923   -1.8450    0.0000 C   0  0  0  0  0  0  0  0  0  0  0  0
   11.5263   -2.3450    0.0000 C   0  0  0  0  0  0  0  0  0  0  0  0
    4.5981    3.6550    0.0000 C   0  0  0  0  0  0  0  0  0  0  0  0
    3.7320    2.1550    0.0000 C   0  0  0  0  0  0  0  0  0  0  0  0
   13.2583   -0.3450    0.0000 C   0  0  0  0  0  0  0  0  0  0  0  0
   13.2583   -2.3450    0.0000 C   0  0  0  0  0  0  0  0  0  0  0  0
    3.7320    4.1550    0.0000 C   0  0  0  0  0  0  0  0  0  0  0  0
    2.8660    2.6550    0.0000 C   0  0  0  0  0  0  0  0  0  0  0  0
    5.4641    4.1550    0.0000 C   0  0  0  0  0  0  0  0  0  0  0  0
    2.8660    3.6550    0.0000 C   0  0  0  0  0  0  0  0  0  0  0  0
   14.9904   -2.3450    0.0000 C   0  0  3  0  0  0  0  0  0  0  0  0
   14.9904   -3.3450    0.0000 C   0  0  0  0  0  0  0  0  0  0  0  0
   15.8564   -1.8450    0.0000 C   0  0  0  0  0  0  0  0  0  0  0  0
    2.8660    0.6550    0.0000 C   0  0  0  0  0  0  0  0  0  0  0  0
    2.0000    5.1550    0.0000 C   0  0  0  0  0  0  0  0  0  0  0  0
    4.5981   -3.9650    0.0000 H   0  0  0  0  0  0  0  0  0  0  0  0
    4.9272   -4.1550    0.0000 H   0  0  0  0  0  0  0  0  0  0  0  0
    4.5981   -1.7250    0.0000 H   0  0  0  0  0  0  0  0  0  0  0  0
    6.3301   -3.9650    0.0000 H   0  0  0  0  0  0  0  0  0  0  0  0
    6.8671   -2.6550    0.0000 H   0  0  0  0  0  0  0  0  0  0  0  0
    4.1306   -1.3700    0.0000 H   0  0  0  0  0  0  0  0  0  0  0  0
    3.3335   -1.3700    0.0000 H   0  0  0  0  0  0  0  0  0  0  0  0
    3.7320   -4.4650    0.0000 H   0  0  0  0  0  0  0  0  0  0  0  0
    6.0010   -5.1550    0.0000 H   0  0  0  0  0  0  0  0  0  0  0  0
    7.7331   -3.5350    0.0000 H   0  0  0  0  0  0  0  0  0  0  0  0
    2.3291   -2.0350    0.0000 H   0  0  0  0  0  0  0  0  0  0  0  0
    5.7932   -0.6550    0.0000 H   0  0  0  0  0  0  0  0  0  0  0  0
    7.1962    1.7750    0.0000 H   0  0  0  0  0  0  0  0  0  0  0  0
    9.2382    0.6181    0.0000 H   0  0  0  0  0  0  0  0  0  0  0  0
    9.4651    1.4650    0.0000 H   0  0  0  0  0  0  0  0  0  0  0  0
    8.6182    1.6919    0.0000 H   0  0  0  0  0  0  0  0  0  0  0  0
   11.5263    0.2750    0.0000 H   0  0  0  0  0  0  0  0  0  0  0  0
   10.1233   -2.1550    0.0000 H   0  0  0  0  0  0  0  0  0  0  0  0
   13.5683   -0.8819    0.0000 H   0  0  0  0  0  0  0  0  0  0  0  0
   13.7953   -0.0350    0.0000 H   0  0  0  0  0  0  0  0  0  0  0  0
   12.9483    0.1919    0.0000 H   0  0  0  0  0  0  0  0  0  0  0  0
    3.7320    4.7750    0.0000 H   0  0  0  0  0  0  0  0  0  0  0  0
    2.3291    2.3450    0.0000 H   0  0  0  0  0  0  0  0  0  0  0  0
    5.7741    3.6181    0.0000 H   0  0  0  0  0  0  0  0  0  0  0  0
    6.0010    4.4650    0.0000 H   0  0  0  0  0  0  0  0  0  0  0  0
    5.1541    4.6919    0.0000 H   0  0  0  0  0  0  0  0  0  0  0  0
   14.9904   -1.7250    0.0000 H   0  0  0  0  0  0  0  0  0  0  0  0
   14.1244   -1.2250    0.0000 H   0  0  0  0  0  0  0  0  0  0  0  0
   12.0632   -3.6550    0.0000 H   0  0  0  0  0  0  0  0  0  0  0  0
   14.3704   -3.3450    0.0000 H   0  0  0  0  0  0  0  0  0  0  0  0
   14.9904   -3.9650    0.0000 H   0  0  0  0  0  0  0  0  0  0  0  0
   15.6104   -3.3450    0.0000 H   0  0  0  0  0  0  0  0  0  0  0  0
    2.5560    1.1919    0.0000 H   0  0  0  0  0  0  0  0  0  0  0  0
    2.3291    0.3450    0.0000 H   0  0  0  0  0  0  0  0  0  0  0  0
    3.1760    0.1181    0.0000 H   0  0  0  0  0  0  0  0  0  0  0  0
    2.6200    5.1550    0.0000 H   0  0  0  0  0  0  0  0  0  0  0  0
    2.0000    5.7750    0.0000 H   0  0  0  0  0  0  0  0  0  0  0  0
    1.3800    5.1550    0.0000 H   0  0  0  0  0  0  0  0  0  0  0  0
   17.2594   -2.0350    0.0000 H   0  0  0  0  0  0  0  0  0  0  0  0
  1 20  1  0  0  0  0
  1 22  1  0  0  0  0
 22  2  1  1  0  0  0
  2 24  1  0  0  0  0
 18  3  1  6  0  0  0
  3 60  1  0  0  0  0
 19  4  1  1  0  0  0
  4 61  1  0  0  0  0
 21  5  1  6  0  0  0
  5 62  1  0  0  0  0
  6 23  1  0  0  0  0
  6 63  1  0  0  0  0
  7 28  1  0  0  0  0
  7 33  1  0  0  0  0
  8 30  1  0  0  0  0
  8 32  1  0  0  0  0
  9 30  2  0  0  0  0
 10 33  2  0  0  0  0
 11 41  1  0  0  0  0
 11 51  1  0  0  0  0
 12 39  1  0  0  0  0
 12 81  1  0  0  0  0
 13 47  1  0  0  0  0
 13 52  1  0  0  0  0
 14 43  2  0  0  0  0
 15 50  1  0  0  0  0
 15 91  1  0  0  0  0
 16 50  2  0  0  0  0
 17 43  1  0  0  0  0
 17 48  1  0  0  0  0
 17 80  1  0  0  0  0
 18 19  1  0  0  0  0
 18 20  1  0  0  0  0
 18 53  1  0  0  0  0
 19 21  1  0  0  0  0
 19 54  1  0  0  0  0
 20 23  1  1  0  0  0
 20 55  1  0  0  0  0
 21 22  1  0  0  0  0
 21 56  1  0  0  0  0
 22 57  1  0  0  0  0
 23 58  1  0  0  0  0
 23 59  1  0  0  0  0
 24 25  2  0  0  0  0
 24 26  1  0  0  0  0
 25 27  1  0  0  0  0
 25 30  1  0  0  0  0
 26 28  2  0  0  0  0
 26 64  1  0  0  0  0
 27 29  2  0  0  0  0
 27 31  1  0  0  0  0
 28 29  1  0  0  0  0
 29 65  1  0  0  0  0
 31 66  1  0  0  0  0
 31 67  1  0  0  0  0
 31 68  1  0  0  0  0
 32 35  1  0  0  0  0
 32 36  2  0  0  0  0
 33 34  1  0  0  0  0
 34 40  1  0  0  0  0
 34 41  2  0  0  0  0
 35 37  2  0  0  0  0
 35 69  1  0  0  0  0
 36 39  1  0  0  0  0
 36 70  1  0  0  0  0
 37 38  1  0  0  0  0
 37 42  1  0  0  0  0
 38 39  2  0  0  0  0
 38 43  1  0  0  0  0
 40 44  2  0  0  0  0
 40 46  1  0  0  0  0
 41 45  1  0  0  0  0
 42 71  1  0  0  0  0
 42 72  1  0  0  0  0
 42 73  1  0  0  0  0
 44 47  1  0  0  0  0
 44 74  1  0  0  0  0
 45 47  2  0  0  0  0
 45 75  1  0  0  0  0
 46 76  1  0  0  0  0
 46 77  1  0  0  0  0
 46 78  1  0  0  0  0
 48 49  1  0  0  0  0
 48 50  1  0  0  0  0
 48 79  1  0  0  0  0
 49 82  1  0  0  0  0
 49 83  1  0  0  0  0
 49 84  1  0  0  0  0
 51 85  1  0  0  0  0
 51 86  1  0  0  0  0
 51 87  1  0  0  0  0
 52 88  1  0  0  0  0
 52 89  1  0  0  0  0
 52 90  1  0  0  0  0
M  END
> <PUBCHEM_COMPOUND_CID>
24096397

> <PUBCHEM_COMPOUND_CANONICALIZED>
1

> <PUBCHEM_CACTVS_COMPLEXITY>
1240

> <PUBCHEM_CACTVS_HBOND_ACCEPTOR>
16

> <PUBCHEM_CACTVS_HBOND_DONOR>
7

> <PUBCHEM_CACTVS_ROTATABLE_BOND>
14

> <PUBCHEM_CACTVS_SUBSKEYS>
AAADcfB+PgAAAAAAAAAAAAAAAAAAAAAAAAA0YMEAAAAAAAABUAAAHgAQCAAADDzxmAcyDoLABgCIAiHSGACCCAAkIAAAiIGODMgfNzaGtTume2jn9hWfuQfY/L7OoAABCAAYAABAAAIQADAAAAAAAAAAAA==

> <PUBCHEM_IUPAC_OPENEYE_NAME>
2-[[4-[4-(2,4-dimethoxy-6-methyl-benzoyl)oxy-2-methyl-6-[(2S,3R,4S,5S,6R)-3,4,5-trihydroxy-6-(hydroxymethyl)tetrahydropyran-2-yl]oxy-benzoyl]oxy-2-hydroxy-6-methyl-benzoyl]amino]propanoic acid

> <PUBCHEM_IUPAC_CAS_NAME>
2-[[[4-[[4-[(2,4-dimethoxy-6-methylphenyl)-oxomethoxy]-2-methyl-6-[[(2S,3R,4S,5S,6R)-3,4,5-trihydroxy-6-(hydroxymethyl)-2-oxanyl]oxy]phenyl]-oxomethoxy]-2-hydroxy-6-methylphenyl]-oxomethyl]amino]propanoic acid

> <PUBCHEM_IUPAC_NAME_MARKUP>
2-[[4-[4-(2,4-dimethoxy-6-methylbenzoyl)oxy-2-methyl-6-[(2<I>S</I>,3<I>R</I>,4<I>S</I>,5<I>S</I>,6<I>R</I>)-3,4,5-trihydroxy-6-(hydroxymethyl)oxan-2-yl]oxybenzoyl]oxy-2-hydroxy-6-methylbenzoyl]amino]propanoic acid

> <PUBCHEM_IUPAC_NAME>
2-[[4-[4-(2,4-dimethoxy-6-methylbenzoyl)oxy-2-methyl-6-[(2S,3R,4S,5S,6R)-3,4,5-trihydroxy-6-(hydroxymethyl)oxan-2-yl]oxybenzoyl]oxy-2-hydroxy-6-methylbenzoyl]amino]propanoic acid

> <PUBCHEM_IUPAC_SYSTEMATIC_NAME>
2-[[4-[4-(2,4-dimethoxy-6-methyl-phenyl)carbonyloxy-2-[(2S,3R,4S,5S,6R)-6-(hydroxymethyl)-3,4,5-tris(oxidanyl)oxan-2-yl]oxy-6-methyl-phenyl]carbonyloxy-2-methyl-6-oxidanyl-phenyl]carbonylamino]propanoic acid

> <PUBCHEM_IUPAC_TRADITIONAL_NAME>
2-[[4-[4-(2,4-dimethoxy-6-methyl-benzoyl)oxy-2-methyl-6-[(2S,3R,4S,5S,6R)-3,4,5-trihydroxy-6-methylol-tetrahydropyran-2-yl]oxy-benzoyl]oxy-2-hydroxy-6-methyl-benzoyl]amino]propionic acid

> <PUBCHEM_IUPAC_INCHI>
InChI=1S/C35H39NO16/c1-14-8-19(10-21(38)25(14)31(42)36-17(4)32(43)44)49-34(46)27-16(3)9-20(50-33(45)26-15(2)7-18(47-5)11-22(26)48-6)12-23(27)51-35-30(41)29(40)28(39)24(13-37)52-35/h7-12,17,24,28-30,35,37-41H,13H2,1-6H3,(H,36,42)(H,43,44)/t17?,24-,28-,29+,30-,35-/m1/s1

> <PUBCHEM_IUPAC_INCHIKEY>
URBFANMWRODMRT-QQBJTHHXSA-N

> <PUBCHEM_XLOGP3_AA>
3.1

> <PUBCHEM_EXACT_MASS>
729.22688416

> <PUBCHEM_MOLECULAR_FORMULA>
C35H39NO16

> <PUBCHEM_MOLECULAR_WEIGHT>
729.7

> <PUBCHEM_OPENEYE_CAN_SMILES>
CC1=CC(=CC(=C1C(=O)NC(C)C(=O)O)O)OC(=O)C2=C(C=C(C=C2C)OC(=O)C3=C(C=C(C=C3C)OC)OC)OC4C(C(C(C(O4)CO)O)O)O

> <PUBCHEM_OPENEYE_ISO_SMILES>
CC1=CC(=CC(=C1C(=O)NC(C)C(=O)O)O)OC(=O)C2=C(C=C(C=C2C)OC(=O)C3=C(C=C(C=C3C)OC)OC)O[C@H]4[C@@H]([C@H]([C@@H]([C@H](O4)CO)O)O)O

> <PUBCHEM_CACTVS_TPSA>
257

> <PUBCHEM_MONOISOTOPIC_WEIGHT>
729.22688416

> <PUBCHEM_TOTAL_CHARGE>
0

> <PUBCHEM_HEAVY_ATOM_COUNT>
52

> <PUBCHEM_ATOM_DEF_STEREO_COUNT>
5

> <PUBCHEM_ATOM_UDEF_STEREO_COUNT>
1

> <PUBCHEM_BOND_DEF_STEREO_COUNT>
0

> <PUBCHEM_BOND_UDEF_STEREO_COUNT>
0

> <PUBCHEM_ISOTOPIC_ATOM_COUNT>
0

> <PUBCHEM_COMPONENT_COUNT>
1

> <PUBCHEM_CACTVS_TAUTO_COUNT>
-1

> <PUBCHEM_COORDINATE_TYPE>
1
5
255

> <PUBCHEM_BONDANNOTATIONS>
22  2  5
20  23  5
24  25  8
24  26  8
25  27  8
26  28  8
27  29  8
28  29  8
18  3  6
32  35  8
32  36  8
34  40  8
34  41  8
35  37  8
36  39  8
37  38  8
38  39  8
19  4  5
40  44  8
41  45  8
44  47  8
45  47  8
48  49  3
21  5  6

$$$$
