 
  -OEChem-10192104142D

100104  0     1  0  0  0  0  0999 V2000
    6.0010   -0.5000    0.0000 O   0  0  0  0  0  0  0  0  0  0  0  0
    8.5991   -1.0000    0.0000 O   0  0  0  0  0  0  0  0  0  0  0  0
    4.2690   -0.5000    0.0000 O   0  0  0  0  0  0  0  0  0  0  0  0
    6.8453    4.0315    0.0000 O   0  0  0  0  0  0  0  0  0  0  0  0
    6.0010   -2.5000    0.0000 O   0  0  0  0  0  0  0  0  0  0  0  0
    4.2690   -3.5000    0.0000 O   0  0  0  0  0  0  0  0  0  0  0  0
   10.3851    4.0451    0.0000 O   0  0  0  0  0  0  0  0  0  0  0  0
    2.5369   -2.5000    0.0000 O   0  0  0  0  0  0  0  0  0  0  0  0
    8.6112    5.0692    0.0000 O   0  0  0  0  0  0  0  0  0  0  0  0
    3.4030    2.0000    0.0000 O   0  0  0  0  0  0  0  0  0  0  0  0
    5.1350    5.0000    0.0000 O   0  0  0  0  0  0  0  0  0  0  0  0
    2.5369    0.5000    0.0000 O   0  0  0  0  0  0  0  0  0  0  0  0
    3.4030    4.0000    0.0000 O   0  0  0  0  0  0  0  0  0  0  0  0
    7.7331   -2.5000    0.0000 O   0  0  0  0  0  0  0  0  0  0  0  0
   10.3312   -5.0000    0.0000 O   0  0  0  0  0  0  0  0  0  0  0  0
   12.0632   -2.0000    0.0000 O   0  0  0  0  0  0  0  0  0  0  0  0
   12.0632   -4.0000    0.0000 O   0  0  0  0  0  0  0  0  0  0  0  0
    6.8671    1.0000    0.0000 C   0  0  1  0  0  0  0  0  0  0  0  0
    7.7331    0.5000    0.0000 C   0  0  1  0  0  0  0  0  0  0  0  0
    6.8671    2.0000    0.0000 C   0  0  2  0  0  0  0  0  0  0  0  0
    8.5991    1.0000    0.0000 C   0  0  0  0  0  0  0  0  0  0  0  0
    7.7331    2.5000    0.0000 C   0  0  0  0  0  0  0  0  0  0  0  0
    6.0010    0.5000    0.0000 C   0  0  0  0  0  0  0  0  0  0  0  0
    8.5991    2.0000    0.0000 C   0  0  0  0  0  0  0  0  0  0  0  0
    7.7331   -0.5000    0.0000 C   0  0  0  0  0  0  0  0  0  0  0  0
    6.0010    2.5000    0.0000 C   0  0  0  0  0  0  0  0  0  0  0  0
    7.7170    3.5415    0.0000 C   0  0  0  0  0  0  0  0  0  0  0  0
    5.1350   -1.0000    0.0000 C   0  0  2  0  0  0  0  0  0  0  0  0
    9.5091    2.5068    0.0000 C   0  0  0  0  0  0  0  0  0  0  0  0
    5.1350   -2.0000    0.0000 C   0  0  1  0  0  0  0  0  0  0  0  0
    4.2690   -2.5000    0.0000 C   0  0  2  0  0  0  0  0  0  0  0  0
    6.0010    3.5000    0.0000 C   0  0  0  0  0  0  0  0  0  0  0  0
    5.1350    2.0000    0.0000 C   0  0  0  0  0  0  0  0  0  0  0  0
    3.4030   -2.0000    0.0000 C   0  0  1  0  0  0  0  0  0  0  0  0
    8.6151    4.0693    0.0000 C   0  0  0  0  0  0  0  0  0  0  0  0
    3.4030   -1.0000    0.0000 C   0  0  1  0  0  0  0  0  0  0  0  0
    9.5172    3.5484    0.0000 C   0  0  0  0  0  0  0  0  0  0  0  0
    4.2690    2.5000    0.0000 C   0  0  0  0  0  0  0  0  0  0  0  0
    5.1350    4.0000    0.0000 C   0  0  0  0  0  0  0  0  0  0  0  0
    2.5369   -0.5000    0.0000 C   0  0  0  0  0  0  0  0  0  0  0  0
    4.2690    3.5000    0.0000 C   0  0  0  0  0  0  0  0  0  0  0  0
    8.5991   -2.0000    0.0000 C   0  0  0  0  0  0  0  0  0  0  0  0
    6.8337    5.0314    0.0000 C   0  0  0  0  0  0  0  0  0  0  0  0
    9.4651   -2.5000    0.0000 C   0  0  0  0  0  0  0  0  0  0  0  0
   11.2492    3.5418    0.0000 C   0  0  0  0  0  0  0  0  0  0  0  0
    2.5369    2.5000    0.0000 C   0  0  0  0  0  0  0  0  0  0  0  0
    4.2690    5.5000    0.0000 C   0  0  0  0  0  0  0  0  0  0  0  0
   10.3312   -2.0000    0.0000 C   0  0  0  0  0  0  0  0  0  0  0  0
    9.4651   -3.5000    0.0000 C   0  0  0  0  0  0  0  0  0  0  0  0
   10.3312   -4.0000    0.0000 C   0  0  0  0  0  0  0  0  0  0  0  0
   11.1972   -2.5000    0.0000 C   0  0  0  0  0  0  0  0  0  0  0  0
   11.1972   -3.5000    0.0000 C   0  0  0  0  0  0  0  0  0  0  0  0
    9.4651   -5.5000    0.0000 C   0  0  0  0  0  0  0  0  0  0  0  0
   12.9292   -2.5000    0.0000 C   0  0  0  0  0  0  0  0  0  0  0  0
    6.8671    0.3800    0.0000 H   0  0  0  0  0  0  0  0  0  0  0  0
    8.2700    0.1900    0.0000 H   0  0  0  0  0  0  0  0  0  0  0  0
    6.3301    1.6900    0.0000 H   0  0  0  0  0  0  0  0  0  0  0  0
    8.8112    0.4174    0.0000 H   0  0  0  0  0  0  0  0  0  0  0  0
    9.2097    1.1077    0.0000 H   0  0  0  0  0  0  0  0  0  0  0  0
    5.7890    1.0826    0.0000 H   0  0  0  0  0  0  0  0  0  0  0  0
    5.3905    0.3923    0.0000 H   0  0  0  0  0  0  0  0  0  0  0  0
    7.1225   -0.3923    0.0000 H   0  0  0  0  0  0  0  0  0  0  0  0
    7.5210   -1.0826    0.0000 H   0  0  0  0  0  0  0  0  0  0  0  0
    5.1350   -0.3800    0.0000 H   0  0  0  0  0  0  0  0  0  0  0  0
   10.0424    2.1907    0.0000 H   0  0  0  0  0  0  0  0  0  0  0  0
    5.1350   -2.6200    0.0000 H   0  0  0  0  0  0  0  0  0  0  0  0
    3.7320   -2.8100    0.0000 H   0  0  0  0  0  0  0  0  0  0  0  0
    3.4030   -2.6200    0.0000 H   0  0  0  0  0  0  0  0  0  0  0  0
    6.5380    3.8100    0.0000 H   0  0  0  0  0  0  0  0  0  0  0  0
    5.1350    1.3800    0.0000 H   0  0  0  0  0  0  0  0  0  0  0  0
    3.4030   -0.3800    0.0000 H   0  0  0  0  0  0  0  0  0  0  0  0
    1.9264   -0.3923    0.0000 H   0  0  0  0  0  0  0  0  0  0  0  0
    2.3249   -1.0826    0.0000 H   0  0  0  0  0  0  0  0  0  0  0  0
    6.5380   -2.1900    0.0000 H   0  0  0  0  0  0  0  0  0  0  0  0
    3.7320   -3.8100    0.0000 H   0  0  0  0  0  0  0  0  0  0  0  0
    2.0000   -2.1900    0.0000 H   0  0  0  0  0  0  0  0  0  0  0  0
    9.1470    5.3813    0.0000 H   0  0  0  0  0  0  0  0  0  0  0  0
    7.4537    5.0386    0.0000 H   0  0  0  0  0  0  0  0  0  0  0  0
    6.8266    5.6514    0.0000 H   0  0  0  0  0  0  0  0  0  0  0  0
    6.2138    5.0242    0.0000 H   0  0  0  0  0  0  0  0  0  0  0  0
   10.9371    3.0060    0.0000 H   0  0  0  0  0  0  0  0  0  0  0  0
   11.7849    3.2297    0.0000 H   0  0  0  0  0  0  0  0  0  0  0  0
   11.5612    4.0775    0.0000 H   0  0  0  0  0  0  0  0  0  0  0  0
    2.0000    0.8100    0.0000 H   0  0  0  0  0  0  0  0  0  0  0  0
    3.4030    4.6200    0.0000 H   0  0  0  0  0  0  0  0  0  0  0  0
    2.8469    3.0369    0.0000 H   0  0  0  0  0  0  0  0  0  0  0  0
    2.0000    2.8100    0.0000 H   0  0  0  0  0  0  0  0  0  0  0  0
    2.2269    1.9631    0.0000 H   0  0  0  0  0  0  0  0  0  0  0  0
    4.5790    6.0369    0.0000 H   0  0  0  0  0  0  0  0  0  0  0  0
    3.7320    5.8100    0.0000 H   0  0  0  0  0  0  0  0  0  0  0  0
    3.9590    4.9631    0.0000 H   0  0  0  0  0  0  0  0  0  0  0  0
   10.3312   -1.3800    0.0000 H   0  0  0  0  0  0  0  0  0  0  0  0
    8.9282   -3.8100    0.0000 H   0  0  0  0  0  0  0  0  0  0  0  0
   12.0632   -4.6200    0.0000 H   0  0  0  0  0  0  0  0  0  0  0  0
    9.1551   -4.9631    0.0000 H   0  0  0  0  0  0  0  0  0  0  0  0
    8.9282   -5.8100    0.0000 H   0  0  0  0  0  0  0  0  0  0  0  0
    9.7751   -6.0369    0.0000 H   0  0  0  0  0  0  0  0  0  0  0  0
   12.6192   -3.0369    0.0000 H   0  0  0  0  0  0  0  0  0  0  0  0
   13.4662   -2.8100    0.0000 H   0  0  0  0  0  0  0  0  0  0  0  0
   13.2392   -1.9631    0.0000 H   0  0  0  0  0  0  0  0  0  0  0  0
  1 23  1  0  0  0  0
 28  1  1  1  0  0  0
  2 25  1  0  0  0  0
  2 42  1  0  0  0  0
  3 28  1  0  0  0  0
  3 36  1  0  0  0  0
  4 27  1  0  0  0  0
  4 43  1  0  0  0  0
 30  5  1  6  0  0  0
  5 74  1  0  0  0  0
 31  6  1  1  0  0  0
  6 75  1  0  0  0  0
  7 37  1  0  0  0  0
  7 45  1  0  0  0  0
 34  8  1  6  0  0  0
  8 76  1  0  0  0  0
  9 35  1  0  0  0  0
  9 77  1  0  0  0  0
 10 38  1  0  0  0  0
 10 46  1  0  0  0  0
 11 39  1  0  0  0  0
 11 47  1  0  0  0  0
 12 40  1  0  0  0  0
 12 84  1  0  0  0  0
 13 41  1  0  0  0  0
 13 85  1  0  0  0  0
 14 42  2  0  0  0  0
 15 50  1  0  0  0  0
 15 53  1  0  0  0  0
 16 51  1  0  0  0  0
 16 54  1  0  0  0  0
 17 52  1  0  0  0  0
 17 94  1  0  0  0  0
 18 19  1  0  0  0  0
 18 20  1  0  0  0  0
 18 23  1  6  0  0  0
 18 55  1  0  0  0  0
 19 21  1  0  0  0  0
 19 25  1  1  0  0  0
 19 56  1  0  0  0  0
 20 22  1  0  0  0  0
 20 26  1  1  0  0  0
 20 57  1  0  0  0  0
 21 24  1  0  0  0  0
 21 58  1  0  0  0  0
 21 59  1  0  0  0  0
 22 24  1  0  0  0  0
 22 27  2  0  0  0  0
 23 60  1  0  0  0  0
 23 61  1  0  0  0  0
 24 29  2  0  0  0  0
 25 62  1  0  0  0  0
 25 63  1  0  0  0  0
 26 32  2  0  0  0  0
 26 33  1  0  0  0  0
 27 35  1  0  0  0  0
 28 30  1  0  0  0  0
 28 64  1  0  0  0  0
 29 37  1  0  0  0  0
 29 65  1  0  0  0  0
 30 31  1  0  0  0  0
 30 66  1  0  0  0  0
 31 34  1  0  0  0  0
 31 67  1  0  0  0  0
 32 39  1  0  0  0  0
 32 69  1  0  0  0  0
 33 38  2  0  0  0  0
 33 70  1  0  0  0  0
 34 36  1  0  0  0  0
 34 68  1  0  0  0  0
 35 37  2  0  0  0  0
 36 40  1  1  0  0  0
 36 71  1  0  0  0  0
 38 41  1  0  0  0  0
 39 41  2  0  0  0  0
 40 72  1  0  0  0  0
 40 73  1  0  0  0  0
 42 44  1  0  0  0  0
 43 78  1  0  0  0  0
 43 79  1  0  0  0  0
 43 80  1  0  0  0  0
 44 48  2  0  0  0  0
 44 49  1  0  0  0  0
 45 81  1  0  0  0  0
 45 82  1  0  0  0  0
 45 83  1  0  0  0  0
 46 86  1  0  0  0  0
 46 87  1  0  0  0  0
 46 88  1  0  0  0  0
 47 89  1  0  0  0  0
 47 90  1  0  0  0  0
 47 91  1  0  0  0  0
 48 51  1  0  0  0  0
 48 92  1  0  0  0  0
 49 50  2  0  0  0  0
 49 93  1  0  0  0  0
 50 52  1  0  0  0  0
 51 52  2  0  0  0  0
 53 95  1  0  0  0  0
 53 96  1  0  0  0  0
 53 97  1  0  0  0  0
 54 98  1  0  0  0  0
 54 99  1  0  0  0  0
 54100  1  0  0  0  0
M  END
> <PUBCHEM_COMPOUND_CID>
11170190

> <PUBCHEM_COMPOUND_CANONICALIZED>
1

> <PUBCHEM_CACTVS_COMPLEXITY>
1140

> <PUBCHEM_CACTVS_HBOND_ACCEPTOR>
17

> <PUBCHEM_CACTVS_HBOND_DONOR>
7

> <PUBCHEM_CACTVS_ROTATABLE_BOND>
15

> <PUBCHEM_CACTVS_SUBSKEYS>
AAADcfB8PgAAAAAAAAAAAAAAAAAAAAAAAAA0YMGCAAAAAADBUAAAGgAACAAADRSwmAMyDoAABgCIAiDSCAACCAAkIAAAiAEGiMgdNzKGNRqicSMlwBUPuYfK7PzOoAABCAAYQADAAAYQADCAAAAAAAAAAA==

> <PUBCHEM_IUPAC_OPENEYE_NAME>
[(2R,3R,4S)-6-hydroxy-4-(4-hydroxy-3,5-dimethoxy-phenyl)-5,7-dimethoxy-3-[[(2R,3R,4S,5S,6R)-3,4,5-trihydroxy-6-(hydroxymethyl)tetrahydropyran-2-yl]oxymethyl]tetralin-2-yl]methyl 4-hydroxy-3,5-dimethoxy-benzoate

> <PUBCHEM_IUPAC_CAS_NAME>
4-hydroxy-3,5-dimethoxybenzoic acid [(2R,3R,4S)-6-hydroxy-4-(4-hydroxy-3,5-dimethoxyphenyl)-5,7-dimethoxy-3-[[(2R,3R,4S,5S,6R)-3,4,5-trihydroxy-6-(hydroxymethyl)-2-oxanyl]oxymethyl]-1,2,3,4-tetrahydronaphthalen-2-yl]methyl ester

> <PUBCHEM_IUPAC_NAME_MARKUP>
[(2<I>R</I>,3<I>R</I>,4<I>S</I>)-6-hydroxy-4-(4-hydroxy-3,5-dimethoxyphenyl)-5,7-dimethoxy-3-[[(2<I>R</I>,3<I>R</I>,4<I>S</I>,5<I>S</I>,6<I>R</I>)-3,4,5-trihydroxy-6-(hydroxymethyl)oxan-2-yl]oxymethyl]-1,2,3,4-tetrahydronaphthalen-2-yl]methyl 4-hydroxy-3,5-dimethoxybenzoate

> <PUBCHEM_IUPAC_NAME>
[(2R,3R,4S)-6-hydroxy-4-(4-hydroxy-3,5-dimethoxyphenyl)-5,7-dimethoxy-3-[[(2R,3R,4S,5S,6R)-3,4,5-trihydroxy-6-(hydroxymethyl)oxan-2-yl]oxymethyl]-1,2,3,4-tetrahydronaphthalen-2-yl]methyl 4-hydroxy-3,5-dimethoxybenzoate

> <PUBCHEM_IUPAC_SYSTEMATIC_NAME>
[(2R,3R,4S)-4-(3,5-dimethoxy-4-oxidanyl-phenyl)-3-[[(2R,3R,4S,5S,6R)-6-(hydroxymethyl)-3,4,5-tris(oxidanyl)oxan-2-yl]oxymethyl]-5,7-dimethoxy-6-oxidanyl-1,2,3,4-tetrahydronaphthalen-2-yl]methyl 3,5-dimethoxy-4-oxidanyl-benzoate

> <PUBCHEM_IUPAC_TRADITIONAL_NAME>
4-hydroxy-3,5-dimethoxy-benzoic acid [(2R,3R,4S)-6-hydroxy-4-(4-hydroxy-3,5-dimethoxy-phenyl)-5,7-dimethoxy-3-[[(2R,3R,4S,5S,6R)-3,4,5-trihydroxy-6-methylol-tetrahydropyran-2-yl]oxymethyl]tetralin-2-yl]methyl ester

> <PUBCHEM_IUPAC_INCHI>
InChI=1S/C37H46O17/c1-46-21-9-17(10-22(47-2)29(21)39)27-20(15-53-37-34(44)33(43)31(41)26(13-38)54-37)19(7-16-8-25(50-5)32(42)35(51-6)28(16)27)14-52-36(45)18-11-23(48-3)30(40)24(12-18)49-4/h8-12,19-20,26-27,31,33-34,37-44H,7,13-15H2,1-6H3/t19-,20-,26+,27+,31+,33-,34+,37+/m0/s1

> <PUBCHEM_IUPAC_INCHIKEY>
GNRCRGAICPAPOH-WUNSKSGZSA-N

> <PUBCHEM_XLOGP3_AA>
2.2

> <PUBCHEM_EXACT_MASS>
762.27349999

> <PUBCHEM_MOLECULAR_FORMULA>
C37H46O17

> <PUBCHEM_MOLECULAR_WEIGHT>
762.7

> <PUBCHEM_OPENEYE_CAN_SMILES>
COC1=CC(=CC(=C1O)OC)C2C(C(CC3=CC(=C(C(=C23)OC)O)OC)COC(=O)C4=CC(=C(C(=C4)OC)O)OC)COC5C(C(C(C(O5)CO)O)O)O

> <PUBCHEM_OPENEYE_ISO_SMILES>
COC1=CC(=CC(=C1O)OC)[C@@H]2[C@H]([C@@H](CC3=CC(=C(C(=C23)OC)O)OC)COC(=O)C4=CC(=C(C(=C4)OC)O)OC)CO[C@H]5[C@@H]([C@H]([C@@H]([C@H](O5)CO)O)O)O

> <PUBCHEM_CACTVS_TPSA>
242

> <PUBCHEM_MONOISOTOPIC_WEIGHT>
762.27349999

> <PUBCHEM_TOTAL_CHARGE>
0

> <PUBCHEM_HEAVY_ATOM_COUNT>
54

> <PUBCHEM_ATOM_DEF_STEREO_COUNT>
8

> <PUBCHEM_ATOM_UDEF_STEREO_COUNT>
0

> <PUBCHEM_BOND_DEF_STEREO_COUNT>
0

> <PUBCHEM_BOND_UDEF_STEREO_COUNT>
0

> <PUBCHEM_ISOTOPIC_ATOM_COUNT>
0

> <PUBCHEM_COMPONENT_COUNT>
1

> <PUBCHEM_CACTVS_TAUTO_COUNT>
-1

> <PUBCHEM_COORDINATE_TYPE>
1
5
255

> <PUBCHEM_BONDANNOTATIONS>
28  1  5
18  23  6
19  25  5
20  26  5
22  24  8
22  27  8
24  29  8
26  32  8
26  33  8
27  35  8
29  37  8
32  39  8
33  38  8
35  37  8
36  40  5
38  41  8
39  41  8
44  48  8
44  49  8
48  51  8
49  50  8
30  5  6
50  52  8
51  52  8
31  6  5
34  8  6

$$$$
