 
  -OEChem-10192104222D

 43 44  0     0  0  0  0  0  0999 V2000
    6.4233    1.7911    0.0000 O   0  0  0  0  0  0  0  0  0  0  0  0
    2.3100    0.4643    0.0000 O   0  0  0  0  0  0  0  0  0  0  0  0
    4.7176    2.0919    0.0000 O   0  0  0  0  0  0  0  0  0  0  0  0
    3.1364    1.4491    0.0000 O   0  0  0  0  0  0  0  0  0  0  0  0
    5.3100    0.4643    0.0000 C   0  0  0  0  0  0  0  0  0  0  0  0
    3.8100   -0.4017    0.0000 C   0  0  0  0  0  0  0  0  0  0  0  0
    4.3100    0.4643    0.0000 C   0  0  0  0  0  0  0  0  0  0  0  0
    5.3100   -0.5357    0.0000 C   0  0  0  0  0  0  0  0  0  0  0  0
    6.1760    0.9643    0.0000 C   0  0  0  0  0  0  0  0  0  0  0  0
    2.9440   -0.9017    0.0000 C   0  0  0  0  0  0  0  0  0  0  0  0
    4.6760   -0.9017    0.0000 C   0  0  0  0  0  0  0  0  0  0  0  0
    6.1760   -1.0357    0.0000 C   0  0  0  0  0  0  0  0  0  0  0  0
    7.0420    0.4643    0.0000 C   0  0  0  0  0  0  0  0  0  0  0  0
    2.9440   -1.9017    0.0000 C   0  0  0  0  0  0  0  0  0  0  0  0
    4.6760   -1.9017    0.0000 C   0  0  0  0  0  0  0  0  0  0  0  0
    7.0420   -0.5357    0.0000 C   0  0  0  0  0  0  0  0  0  0  0  0
    3.8100   -2.4017    0.0000 C   0  0  0  0  0  0  0  0  0  0  0  0
    5.4836    1.4491    0.0000 C   0  0  0  0  0  0  0  0  0  0  0  0
    3.3100    0.4643    0.0000 C   0  0  0  0  0  0  0  0  0  0  0  0
    4.4177    1.0749    0.0000 H   0  0  0  0  0  0  0  0  0  0  0  0
    3.7274    0.6764    0.0000 H   0  0  0  0  0  0  0  0  0  0  0  0
    4.6994   -0.4280    0.0000 H   0  0  0  0  0  0  0  0  0  0  0  0
    5.0980   -1.1183    0.0000 H   0  0  0  0  0  0  0  0  0  0  0  0
    6.5746    1.4393    0.0000 H   0  0  0  0  0  0  0  0  0  0  0  0
    5.7775    1.4393    0.0000 H   0  0  0  0  0  0  0  0  0  0  0  0
    2.7319   -0.3191    0.0000 H   0  0  0  0  0  0  0  0  0  0  0  0
    2.3334   -1.0094    0.0000 H   0  0  0  0  0  0  0  0  0  0  0  0
    5.2866   -1.0094    0.0000 H   0  0  0  0  0  0  0  0  0  0  0  0
    4.8881   -0.3191    0.0000 H   0  0  0  0  0  0  0  0  0  0  0  0
    5.7775   -1.5106    0.0000 H   0  0  0  0  0  0  0  0  0  0  0  0
    6.5746   -1.5106    0.0000 H   0  0  0  0  0  0  0  0  0  0  0  0
    7.6526    0.3566    0.0000 H   0  0  0  0  0  0  0  0  0  0  0  0
    7.2541    1.0469    0.0000 H   0  0  0  0  0  0  0  0  0  0  0  0
    2.3334   -1.7941    0.0000 H   0  0  0  0  0  0  0  0  0  0  0  0
    2.7319   -2.4843    0.0000 H   0  0  0  0  0  0  0  0  0  0  0  0
    4.8881   -2.4843    0.0000 H   0  0  0  0  0  0  0  0  0  0  0  0
    5.2866   -1.7941    0.0000 H   0  0  0  0  0  0  0  0  0  0  0  0
    7.2541   -1.1183    0.0000 H   0  0  0  0  0  0  0  0  0  0  0  0
    7.6526   -0.4280    0.0000 H   0  0  0  0  0  0  0  0  0  0  0  0
    3.4115   -2.8767    0.0000 H   0  0  0  0  0  0  0  0  0  0  0  0
    4.2085   -2.8767    0.0000 H   0  0  0  0  0  0  0  0  0  0  0  0
    6.5310    2.4017    0.0000 H   0  0  0  0  0  0  0  0  0  0  0  0
    2.0000    1.0012    0.0000 H   0  0  0  0  0  0  0  0  0  0  0  0
  1 18  1  0  0  0  0
  1 42  1  0  0  0  0
  2 19  1  0  0  0  0
  2 43  1  0  0  0  0
  3 18  2  0  0  0  0
  4 19  2  0  0  0  0
  5  7  1  0  0  0  0
  5  8  1  0  0  0  0
  5  9  1  0  0  0  0
  5 18  1  0  0  0  0
  6  7  1  0  0  0  0
  6 10  1  0  0  0  0
  6 11  1  0  0  0  0
  6 19  1  0  0  0  0
  7 20  1  0  0  0  0
  7 21  1  0  0  0  0
  8 12  1  0  0  0  0
  8 22  1  0  0  0  0
  8 23  1  0  0  0  0
  9 13  1  0  0  0  0
  9 24  1  0  0  0  0
  9 25  1  0  0  0  0
 10 14  1  0  0  0  0
 10 26  1  0  0  0  0
 10 27  1  0  0  0  0
 11 15  1  0  0  0  0
 11 28  1  0  0  0  0
 11 29  1  0  0  0  0
 12 16  1  0  0  0  0
 12 30  1  0  0  0  0
 12 31  1  0  0  0  0
 13 16  1  0  0  0  0
 13 32  1  0  0  0  0
 13 33  1  0  0  0  0
 14 17  1  0  0  0  0
 14 34  1  0  0  0  0
 14 35  1  0  0  0  0
 15 17  1  0  0  0  0
 15 36  1  0  0  0  0
 15 37  1  0  0  0  0
 16 38  1  0  0  0  0
 16 39  1  0  0  0  0
 17 40  1  0  0  0  0
 17 41  1  0  0  0  0
M  END
> <PUBCHEM_COMPOUND_CID>
22407740

> <PUBCHEM_COMPOUND_CANONICALIZED>
1

> <PUBCHEM_CACTVS_COMPLEXITY>
315

> <PUBCHEM_CACTVS_HBOND_ACCEPTOR>
4

> <PUBCHEM_CACTVS_HBOND_DONOR>
2

> <PUBCHEM_CACTVS_ROTATABLE_BOND>
4

> <PUBCHEM_CACTVS_SUBSKEYS>
AAADceBwOAAAAAAAAAAAAAAAAAAAAAAAAAAwYAAAAAAAAAAAAAAAGgAACAAADgCAgAAACAAAAgAIAACQCAAAAAAAAAAAAAEAAAAAABIAAAAAQAAEAAAAAAGI7uCPAAAAAAAAAAAAAAAAAAAAAAAAAAAAAA==

> <PUBCHEM_IUPAC_OPENEYE_NAME>
1-[(1-carboxycyclohexyl)methyl]cyclohexanecarboxylic acid

> <PUBCHEM_IUPAC_CAS_NAME>
1-[(1-carboxycyclohexyl)methyl]-1-cyclohexanecarboxylic acid

> <PUBCHEM_IUPAC_NAME_MARKUP>
1-[(1-carboxycyclohexyl)methyl]cyclohexane-1-carboxylic acid

> <PUBCHEM_IUPAC_NAME>
1-[(1-carboxycyclohexyl)methyl]cyclohexane-1-carboxylic acid

> <PUBCHEM_IUPAC_SYSTEMATIC_NAME>
1-[(1-carboxycyclohexyl)methyl]cyclohexane-1-carboxylic acid

> <PUBCHEM_IUPAC_TRADITIONAL_NAME>
1-[(1-carboxycyclohexyl)methyl]cyclohexanecarboxylic acid

> <PUBCHEM_IUPAC_INCHI>
InChI=1S/C15H24O4/c16-12(17)14(7-3-1-4-8-14)11-15(13(18)19)9-5-2-6-10-15/h1-11H2,(H,16,17)(H,18,19)

> <PUBCHEM_IUPAC_INCHIKEY>
AKQPXMWOXJEUMD-UHFFFAOYSA-N

> <PUBCHEM_XLOGP3_AA>
3.5

> <PUBCHEM_EXACT_MASS>
268.16745924

> <PUBCHEM_MOLECULAR_FORMULA>
C15H24O4

> <PUBCHEM_MOLECULAR_WEIGHT>
268.35

> <PUBCHEM_OPENEYE_CAN_SMILES>
C1CCC(CC1)(CC2(CCCCC2)C(=O)O)C(=O)O

> <PUBCHEM_OPENEYE_ISO_SMILES>
C1CCC(CC1)(CC2(CCCCC2)C(=O)O)C(=O)O

> <PUBCHEM_CACTVS_TPSA>
74.6

> <PUBCHEM_MONOISOTOPIC_WEIGHT>
268.16745924

> <PUBCHEM_TOTAL_CHARGE>
0

> <PUBCHEM_HEAVY_ATOM_COUNT>
19

> <PUBCHEM_ATOM_DEF_STEREO_COUNT>
0

> <PUBCHEM_ATOM_UDEF_STEREO_COUNT>
0

> <PUBCHEM_BOND_DEF_STEREO_COUNT>
0

> <PUBCHEM_BOND_UDEF_STEREO_COUNT>
0

> <PUBCHEM_ISOTOPIC_ATOM_COUNT>
0

> <PUBCHEM_COMPONENT_COUNT>
1

> <PUBCHEM_CACTVS_TAUTO_COUNT>
-1

> <PUBCHEM_COORDINATE_TYPE>
1
5
255

$$$$
