 
  -OEChem-10192104392D

 66 69  0     1  0  0  0  0  0999 V2000
   16.4497   -1.2328    0.0000 O   0  0  0  0  0  0  0  0  0  0  0  0
   16.4574    0.7672    0.0000 O   0  0  0  0  0  0  0  0  0  0  0  0
   14.7292    1.7739    0.0000 O   0  0  0  0  0  0  0  0  0  0  0  0
   13.8459   -2.7227    0.0000 O   0  0  0  0  0  0  0  0  0  0  0  0
    5.1350   -0.6919    0.0000 O   0  0  0  0  0  0  0  0  0  0  0  0
    2.5369   -1.1919    0.0000 O   0  0  0  0  0  0  0  0  0  0  0  0
    2.5369    0.8081    0.0000 O   0  0  0  0  0  0  0  0  0  0  0  0
    4.2690    1.8081    0.0000 O   0  0  0  0  0  0  0  0  0  0  0  0
    5.1350   -2.6919    0.0000 O   0  0  0  0  0  0  0  0  0  0  0  0
   14.7177   -1.2261    0.0000 C   0  0  2  0  0  0  0  0  0  0  0  0
   15.5856   -0.7294    0.0000 C   0  0  2  0  0  0  0  0  0  0  0  0
   13.8536   -0.7227    0.0000 C   0  0  0  0  0  0  0  0  0  0  0  0
   15.5895    0.2706    0.0000 C   0  0  2  0  0  0  0  0  0  0  0  0
   13.8574    0.2772    0.0000 C   0  0  1  0  0  0  0  0  0  0  0  0
   14.7254    0.7739    0.0000 C   0  0  1  0  0  0  0  0  0  0  0  0
   14.7138   -2.2261    0.0000 C   0  0  0  0  0  0  0  0  0  0  0  0
   12.9933    0.7806    0.0000 C   0  0  0  0  0  0  0  0  0  0  0  0
    3.4030   -0.6919    0.0000 C   0  0  1  0  0  0  0  0  0  0  0  0
    3.4030    0.3081    0.0000 C   0  0  1  0  0  0  0  0  0  0  0  0
    4.2690   -1.1919    0.0000 C   0  0  1  0  0  0  0  0  0  0  0  0
    4.2690    0.8081    0.0000 C   0  0  1  0  0  0  0  0  0  0  0  0
    5.1350    0.3081    0.0000 C   0  0  1  0  0  0  0  0  0  0  0  0
    4.2690   -2.1919    0.0000 C   0  0  0  0  0  0  0  0  0  0  0  0
   12.1292    1.2839    0.0000 C   0  0  0  0  0  0  0  0  0  0  0  0
    6.0010    0.8081    0.0000 C   0  0  0  0  0  0  0  0  0  0  0  0
   11.2651    1.7872    0.0000 C   0  0  0  0  0  0  0  0  0  0  0  0
   10.3591    1.2734    0.0000 C   0  0  0  0  0  0  0  0  0  0  0  0
    9.4651    1.8081    0.0000 C   0  0  0  0  0  0  0  0  0  0  0  0
   11.2651    2.8289    0.0000 C   0  0  0  0  0  0  0  0  0  0  0  0
    6.8671    1.3081    0.0000 C   0  0  0  0  0  0  0  0  0  0  0  0
    7.7331    1.8081    0.0000 C   0  0  0  0  0  0  0  0  0  0  0  0
    9.4651    2.8081    0.0000 C   0  0  0  0  0  0  0  0  0  0  0  0
    8.5991    1.3081    0.0000 C   0  0  0  0  0  0  0  0  0  0  0  0
   10.3591    3.3427    0.0000 C   0  0  0  0  0  0  0  0  0  0  0  0
    7.7331    2.8081    0.0000 C   0  0  0  0  0  0  0  0  0  0  0  0
    8.5991    3.3081    0.0000 C   0  0  0  0  0  0  0  0  0  0  0  0
   14.1795   -1.5340    0.0000 H   0  0  0  0  0  0  0  0  0  0  0  0
   15.5832   -1.3494    0.0000 H   0  0  0  0  0  0  0  0  0  0  0  0
   13.2434   -0.6127    0.0000 H   0  0  0  0  0  0  0  0  0  0  0  0
   13.6393   -1.3045    0.0000 H   0  0  0  0  0  0  0  0  0  0  0  0
   16.1252   -0.0415    0.0000 H   0  0  0  0  0  0  0  0  0  0  0  0
   13.8598    0.8972    0.0000 H   0  0  0  0  0  0  0  0  0  0  0  0
   15.2635    1.0818    0.0000 H   0  0  0  0  0  0  0  0  0  0  0  0
   14.9236   -2.8095    0.0000 H   0  0  0  0  0  0  0  0  0  0  0  0
   15.3248   -2.1208    0.0000 H   0  0  0  0  0  0  0  0  0  0  0  0
   16.4473   -1.8528    0.0000 H   0  0  0  0  0  0  0  0  0  0  0  0
    3.4030   -1.3119    0.0000 H   0  0  0  0  0  0  0  0  0  0  0  0
    3.4030    0.9281    0.0000 H   0  0  0  0  0  0  0  0  0  0  0  0
   16.9931    0.4552    0.0000 H   0  0  0  0  0  0  0  0  0  0  0  0
   15.2674    2.0818    0.0000 H   0  0  0  0  0  0  0  0  0  0  0  0
    4.8059   -1.5019    0.0000 H   0  0  0  0  0  0  0  0  0  0  0  0
    4.8059    1.1181    0.0000 H   0  0  0  0  0  0  0  0  0  0  0  0
    5.6720   -0.0019    0.0000 H   0  0  0  0  0  0  0  0  0  0  0  0
   13.8435   -3.3427    0.0000 H   0  0  0  0  0  0  0  0  0  0  0  0
    3.6584   -2.0843    0.0000 H   0  0  0  0  0  0  0  0  0  0  0  0
    4.0569   -2.7745    0.0000 H   0  0  0  0  0  0  0  0  0  0  0  0
    2.5369   -1.8119    0.0000 H   0  0  0  0  0  0  0  0  0  0  0  0
    2.0000    0.4981    0.0000 H   0  0  0  0  0  0  0  0  0  0  0  0
    3.7320    2.1181    0.0000 H   0  0  0  0  0  0  0  0  0  0  0  0
    5.1350   -3.3119    0.0000 H   0  0  0  0  0  0  0  0  0  0  0  0
   10.3519    0.6534    0.0000 H   0  0  0  0  0  0  0  0  0  0  0  0
   11.8009    3.1410    0.0000 H   0  0  0  0  0  0  0  0  0  0  0  0
    8.5991    0.6881    0.0000 H   0  0  0  0  0  0  0  0  0  0  0  0
   10.3519    3.9627    0.0000 H   0  0  0  0  0  0  0  0  0  0  0  0
    7.1962    3.1181    0.0000 H   0  0  0  0  0  0  0  0  0  0  0  0
    8.5991    3.9281    0.0000 H   0  0  0  0  0  0  0  0  0  0  0  0
 11  1  1  6  0  0  0
  1 46  1  0  0  0  0
 13  2  1  6  0  0  0
  2 49  1  0  0  0  0
 15  3  1  1  0  0  0
  3 50  1  0  0  0  0
  4 16  1  0  0  0  0
  4 54  1  0  0  0  0
  5 20  1  0  0  0  0
  5 22  1  0  0  0  0
 18  6  1  1  0  0  0
  6 57  1  0  0  0  0
 19  7  1  6  0  0  0
  7 58  1  0  0  0  0
 21  8  1  6  0  0  0
  8 59  1  0  0  0  0
  9 23  1  0  0  0  0
  9 60  1  0  0  0  0
 10 11  1  0  0  0  0
 10 12  1  0  0  0  0
 10 16  1  1  0  0  0
 10 37  1  0  0  0  0
 11 13  1  0  0  0  0
 11 38  1  0  0  0  0
 12 14  1  0  0  0  0
 12 39  1  0  0  0  0
 12 40  1  0  0  0  0
 13 15  1  0  0  0  0
 13 41  1  0  0  0  0
 14 15  1  0  0  0  0
 14 17  1  6  0  0  0
 14 42  1  0  0  0  0
 15 43  1  0  0  0  0
 16 44  1  0  0  0  0
 16 45  1  0  0  0  0
 17 24  3  0  0  0  0
 18 19  1  0  0  0  0
 18 20  1  0  0  0  0
 18 47  1  0  0  0  0
 19 21  1  0  0  0  0
 19 48  1  0  0  0  0
 20 23  1  6  0  0  0
 20 51  1  0  0  0  0
 21 22  1  0  0  0  0
 21 52  1  0  0  0  0
 22 25  1  1  0  0  0
 22 53  1  0  0  0  0
 23 55  1  0  0  0  0
 23 56  1  0  0  0  0
 24 26  1  0  0  0  0
 25 30  3  0  0  0  0
 26 27  2  0  0  0  0
 26 29  1  0  0  0  0
 27 28  1  0  0  0  0
 27 61  1  0  0  0  0
 28 32  2  0  0  0  0
 28 33  1  0  0  0  0
 29 34  2  0  0  0  0
 29 62  1  0  0  0  0
 30 31  1  0  0  0  0
 31 33  2  0  0  0  0
 31 35  1  0  0  0  0
 32 34  1  0  0  0  0
 32 36  1  0  0  0  0
 33 63  1  0  0  0  0
 34 64  1  0  0  0  0
 35 36  2  0  0  0  0
 35 65  1  0  0  0  0
 36 66  1  0  0  0  0
M  END
> <PUBCHEM_COMPOUND_CID>
138533322

> <PUBCHEM_COMPOUND_CANONICALIZED>
1

> <PUBCHEM_CACTVS_COMPLEXITY>
883

> <PUBCHEM_CACTVS_HBOND_ACCEPTOR>
9

> <PUBCHEM_CACTVS_HBOND_DONOR>
8

> <PUBCHEM_CACTVS_ROTATABLE_BOND>
4

> <PUBCHEM_CACTVS_SUBSKEYS>
AAADceB4PAAAAAAAAAAAAAAAAAAAAAAAAAA0YMEAAAAAAADBUAAAGgAACAAADRSgmAIwAMAABgDAEiBCAAgCAAAgAAAIiAAAAIgJMCKAERCCYAAlgAALiAfA4PQOwAACAAAQAADAAAYQADCAAAAAAAAAAA==

> <PUBCHEM_IUPAC_OPENEYE_NAME>
(2R,3S,4R,5S,6R)-2-(hydroxymethyl)-6-[2-[7-[2-[(1R,2R,3S,4R,5R)-2,3,4-trihydroxy-5-(hydroxymethyl)cyclohexyl]ethynyl]-2-naphthyl]ethynyl]tetrahydropyran-3,4,5-triol

> <PUBCHEM_IUPAC_CAS_NAME>
(2R,3S,4R,5S,6R)-2-(hydroxymethyl)-6-[2-[7-[2-[(1R,2R,3S,4R,5R)-2,3,4-trihydroxy-5-(hydroxymethyl)cyclohexyl]ethynyl]-2-naphthalenyl]ethynyl]oxane-3,4,5-triol

> <PUBCHEM_IUPAC_NAME_MARKUP>
(2<I>R</I>,3<I>S</I>,4<I>R</I>,5<I>S</I>,6<I>R</I>)-2-(hydroxymethyl)-6-[2-[7-[2-[(1<I>R</I>,2<I>R</I>,3<I>S</I>,4<I>R</I>,5<I>R</I>)-2,3,4-trihydroxy-5-(hydroxymethyl)cyclohexyl]ethynyl]naphthalen-2-yl]ethynyl]oxane-3,4,5-triol

> <PUBCHEM_IUPAC_NAME>
(2R,3S,4R,5S,6R)-2-(hydroxymethyl)-6-[2-[7-[2-[(1R,2R,3S,4R,5R)-2,3,4-trihydroxy-5-(hydroxymethyl)cyclohexyl]ethynyl]naphthalen-2-yl]ethynyl]oxane-3,4,5-triol

> <PUBCHEM_IUPAC_SYSTEMATIC_NAME>
(2R,3S,4R,5S,6R)-2-(hydroxymethyl)-6-[2-[7-[2-[(1R,2R,3S,4R,5R)-5-(hydroxymethyl)-2,3,4-tris(oxidanyl)cyclohexyl]ethynyl]naphthalen-2-yl]ethynyl]oxane-3,4,5-triol

> <PUBCHEM_IUPAC_TRADITIONAL_NAME>
(2R,3S,4R,5S,6R)-2-methylol-6-[2-[7-[2-[(1R,2R,3S,4R,5R)-2,3,4-trihydroxy-5-methylol-cyclohexyl]ethynyl]-2-naphthyl]ethynyl]tetrahydropyran-3,4,5-triol

> <PUBCHEM_IUPAC_INCHI>
InChI=1S/C27H30O9/c28-12-19-11-17(22(30)26(34)23(19)31)7-3-14-1-5-16-6-2-15(10-18(16)9-14)4-8-20-24(32)27(35)25(33)21(13-29)36-20/h1-2,5-6,9-10,17,19-35H,11-13H2/t17-,19+,20+,21+,22+,23+,24+,25+,26-,27+/m0/s1

> <PUBCHEM_IUPAC_INCHIKEY>
COBWUGDXNPSGLH-GSYSMSLPSA-N

> <PUBCHEM_XLOGP3_AA>
0

> <PUBCHEM_EXACT_MASS>
498.18898253

> <PUBCHEM_MOLECULAR_FORMULA>
C27H30O9

> <PUBCHEM_MOLECULAR_WEIGHT>
498.5

> <PUBCHEM_OPENEYE_CAN_SMILES>
C1C(C(C(C(C1C#CC2=CC3=C(C=C2)C=CC(=C3)C#CC4C(C(C(C(O4)CO)O)O)O)O)O)O)CO

> <PUBCHEM_OPENEYE_ISO_SMILES>
C1[C@@H]([C@H]([C@H]([C@@H]([C@H]1C#CC2=CC3=C(C=C2)C=CC(=C3)C#C[C@@H]4[C@H]([C@H]([C@@H]([C@H](O4)CO)O)O)O)O)O)O)CO

> <PUBCHEM_CACTVS_TPSA>
171

> <PUBCHEM_MONOISOTOPIC_WEIGHT>
498.18898253

> <PUBCHEM_TOTAL_CHARGE>
0

> <PUBCHEM_HEAVY_ATOM_COUNT>
36

> <PUBCHEM_ATOM_DEF_STEREO_COUNT>
10

> <PUBCHEM_ATOM_UDEF_STEREO_COUNT>
0

> <PUBCHEM_BOND_DEF_STEREO_COUNT>
0

> <PUBCHEM_BOND_UDEF_STEREO_COUNT>
0

> <PUBCHEM_ISOTOPIC_ATOM_COUNT>
0

> <PUBCHEM_COMPONENT_COUNT>
1

> <PUBCHEM_CACTVS_TAUTO_COUNT>
-1

> <PUBCHEM_COORDINATE_TYPE>
1
5
255

> <PUBCHEM_BONDANNOTATIONS>
11  1  6
10  16  5
14  17  6
13  2  6
20  23  6
22  25  5
26  27  8
26  29  8
27  28  8
28  32  8
28  33  8
29  34  8
15  3  5
31  33  8
31  35  8
32  34  8
32  36  8
35  36  8
18  6  5
19  7  6
21  8  6

$$$$
