 
  -OEChem-10192103522D

 54 57  0     1  0  0  0  0  0999 V2000
    3.7112   -2.8819    0.0000 S   0  0  0  0  0  0  0  0  0  0  0  0
    7.0388    2.8819    0.0000 S   0  0  0  0  0  0  0  0  0  0  0  0
    4.0649   -0.1998    0.0000 O   0  0  0  0  0  0  0  0  0  0  0  0
    5.8570   -1.2345    0.0000 O   0  0  0  0  0  0  0  0  0  0  0  0
    4.9749    1.3070    0.0000 O   0  0  0  0  0  0  0  0  0  0  0  0
    6.7070    0.3070    0.0000 O   0  0  0  0  0  0  0  0  0  0  0  0
    2.7976   -3.2886    0.0000 O   0  0  0  0  0  0  0  0  0  0  0  0
    3.8157   -3.8764    0.0000 O   0  0  0  0  0  0  0  0  0  0  0  0
    7.9524    3.2886    0.0000 O   0  0  0  0  0  0  0  0  0  0  0  0
    6.9343    3.8764    0.0000 O   0  0  0  0  0  0  0  0  0  0  0  0
    3.2892   -1.9363    0.0000 N   0  0  3  0  0  0  0  0  0  0  0  0
    4.7410   -2.7745    0.0000 N   0  0  3  0  0  0  0  0  0  0  0  0
    6.0501    2.7788    0.0000 N   0  0  3  0  0  0  0  0  0  0  0  0
    7.4440    1.9741    0.0000 N   0  0  3  0  0  0  0  0  0  0  0  0
    4.0569   -1.2414    0.0000 C   0  0  2  0  0  0  0  0  0  0  0  0
    4.9590   -1.7623    0.0000 C   0  0  1  0  0  0  0  0  0  0  0  0
    5.8409    1.8070    0.0000 C   0  0  1  0  0  0  0  0  0  0  0  0
    6.7070    1.3070    0.0000 C   0  0  2  0  0  0  0  0  0  0  0  0
    4.9749    0.3070    0.0000 C   0  0  0  0  0  0  0  0  0  0  0  0
    5.8409   -0.1930    0.0000 C   0  0  0  0  0  0  0  0  0  0  0  0
    2.3107   -1.7301    0.0000 C   0  0  0  0  0  0  0  0  0  0  0  0
    5.4089   -3.5188    0.0000 C   0  0  0  0  0  0  0  0  0  0  0  0
    5.3823    3.5231    0.0000 C   0  0  0  0  0  0  0  0  0  0  0  0
    8.4225    1.7679    0.0000 C   0  0  0  0  0  0  0  0  0  0  0  0
    2.0000   -0.7796    0.0000 C   0  0  0  0  0  0  0  0  0  0  0  0
    6.3874   -3.3126    0.0000 C   0  0  0  0  0  0  0  0  0  0  0  0
    4.4038    3.3169    0.0000 C   0  0  0  0  0  0  0  0  0  0  0  0
    8.7331    0.8174    0.0000 C   0  0  0  0  0  0  0  0  0  0  0  0
    3.2812   -0.8937    0.0000 H   0  0  0  0  0  0  0  0  0  0  0  0
    5.6479   -2.2601    0.0000 H   0  0  0  0  0  0  0  0  0  0  0  0
    5.1539    2.3075    0.0000 H   0  0  0  0  0  0  0  0  0  0  0  0
    7.4839    0.9623    0.0000 H   0  0  0  0  0  0  0  0  0  0  0  0
    4.4404    0.6211    0.0000 H   0  0  0  0  0  0  0  0  0  0  0  0
    6.3802   -0.4988    0.0000 H   0  0  0  0  0  0  0  0  0  0  0  0
    1.6968   -1.8174    0.0000 H   0  0  0  0  0  0  0  0  0  0  0  0
    2.2901   -2.3497    0.0000 H   0  0  0  0  0  0  0  0  0  0  0  0
    4.8825   -3.8465    0.0000 H   0  0  0  0  0  0  0  0  0  0  0  0
    5.6401   -4.0941    0.0000 H   0  0  0  0  0  0  0  0  0  0  0  0
    5.9086    3.8508    0.0000 H   0  0  0  0  0  0  0  0  0  0  0  0
    5.1510    4.0984    0.0000 H   0  0  0  0  0  0  0  0  0  0  0  0
    9.0363    1.8552    0.0000 H   0  0  0  0  0  0  0  0  0  0  0  0
    8.4430    2.3875    0.0000 H   0  0  0  0  0  0  0  0  0  0  0  0
    2.5893   -0.5869    0.0000 H   0  0  0  0  0  0  0  0  0  0  0  0
    1.8074   -0.1902    0.0000 H   0  0  0  0  0  0  0  0  0  0  0  0
    1.4107   -0.9722    0.0000 H   0  0  0  0  0  0  0  0  0  0  0  0
    6.5152   -3.9193    0.0000 H   0  0  0  0  0  0  0  0  0  0  0  0
    6.9941   -3.1848    0.0000 H   0  0  0  0  0  0  0  0  0  0  0  0
    6.2595   -2.7059    0.0000 H   0  0  0  0  0  0  0  0  0  0  0  0
    4.2759    3.9236    0.0000 H   0  0  0  0  0  0  0  0  0  0  0  0
    3.7971    3.1890    0.0000 H   0  0  0  0  0  0  0  0  0  0  0  0
    4.5316    2.7102    0.0000 H   0  0  0  0  0  0  0  0  0  0  0  0
    8.1438    0.6247    0.0000 H   0  0  0  0  0  0  0  0  0  0  0  0
    8.9257    0.2280    0.0000 H   0  0  0  0  0  0  0  0  0  0  0  0
    9.3225    1.0100    0.0000 H   0  0  0  0  0  0  0  0  0  0  0  0
  1  7  2  0  0  0  0
  1  8  2  0  0  0  0
  1 11  1  0  0  0  0
  1 12  1  0  0  0  0
  2  9  2  0  0  0  0
  2 10  2  0  0  0  0
  2 13  1  0  0  0  0
  2 14  1  0  0  0  0
  3 15  1  0  0  0  0
  3 19  1  0  0  0  0
  4 16  1  0  0  0  0
  4 20  1  0  0  0  0
  5 17  1  0  0  0  0
  5 19  1  0  0  0  0
  6 18  1  0  0  0  0
  6 20  1  0  0  0  0
 11 15  1  0  0  0  0
 11 21  1  0  0  0  0
 12 16  1  0  0  0  0
 12 22  1  0  0  0  0
 13 17  1  0  0  0  0
 13 23  1  0  0  0  0
 14 18  1  0  0  0  0
 14 24  1  0  0  0  0
 15 16  1  0  0  0  0
 15 29  1  6  0  0  0
 16 30  1  6  0  0  0
 17 18  1  0  0  0  0
 17 31  1  6  0  0  0
 18 32  1  6  0  0  0
 19 20  1  0  0  0  0
 19 33  1  0  0  0  0
 20 34  1  0  0  0  0
 21 25  1  0  0  0  0
 21 35  1  0  0  0  0
 21 36  1  0  0  0  0
 22 26  1  0  0  0  0
 22 37  1  0  0  0  0
 22 38  1  0  0  0  0
 23 27  1  0  0  0  0
 23 39  1  0  0  0  0
 23 40  1  0  0  0  0
 24 28  1  0  0  0  0
 24 41  1  0  0  0  0
 24 42  1  0  0  0  0
 25 43  1  0  0  0  0
 25 44  1  0  0  0  0
 25 45  1  0  0  0  0
 26 46  1  0  0  0  0
 26 47  1  0  0  0  0
 26 48  1  0  0  0  0
 27 49  1  0  0  0  0
 27 50  1  0  0  0  0
 27 51  1  0  0  0  0
 28 52  1  0  0  0  0
 28 53  1  0  0  0  0
 28 54  1  0  0  0  0
M  END
> <PUBCHEM_COMPOUND_CID>
1255315

> <PUBCHEM_COMPOUND_CANONICALIZED>
1

> <PUBCHEM_CACTVS_COMPLEXITY>
692

> <PUBCHEM_CACTVS_HBOND_ACCEPTOR>
12

> <PUBCHEM_CACTVS_HBOND_DONOR>
0

> <PUBCHEM_CACTVS_ROTATABLE_BOND>
4

> <PUBCHEM_CACTVS_SUBSKEYS>
AAADceBzvABgAAAAAAAAAAAAAAAAAWLAAAAkSAAAAAAAAFiQAAAAHgAAQAAAAADxgAcCCAIABAAAAAAAADAAAAAAAAAAAAAIAAATQAAAAAA7AAAAAACWAAAAAAAAAAAAAAAAAAAAAAAAAAAAAAAAAAAAAA==

> <PUBCHEM_IUPAC_OPENEYE_NAME>
(3S,7R,11S,15R)-4,6,12,14-tetraethyl-2,8,10,16-tetraoxa-5lambda6,13lambda6-dithia-4,6,12,14-tetrazatetracyclo[7.7.0.03,7.011,15]hexadecane 5,5,13,13-tetraoxide

> <PUBCHEM_IUPAC_CAS_NAME>
(3S,7R,11S,15R)-4,6,12,14-tetraethyl-2,8,10,16-tetraoxa-5lambda6,13lambda6-dithia-4,6,12,14-tetrazatetracyclo[7.7.0.03,7.011,15]hexadecane 5,5,13,13-tetraoxide

> <PUBCHEM_IUPAC_NAME_MARKUP>
(3<I>S</I>,7<I>R</I>,11<I>S</I>,15<I>R</I>)-4,6,12,14-tetraethyl-2,8,10,16-tetraoxa-5&lambda;<SUP>6</SUP>,13&lambda;<SUP>6</SUP>-dithia-4,6,12,14-tetrazatetracyclo[7.7.0.0<SUP>3,7</SUP>.0<SUP>11,15</SUP>]hexadecane 5,5,13,13-tetraoxide

> <PUBCHEM_IUPAC_NAME>
(3S,7R,11S,15R)-4,6,12,14-tetraethyl-2,8,10,16-tetraoxa-5lambda6,13lambda6-dithia-4,6,12,14-tetrazatetracyclo[7.7.0.03,7.011,15]hexadecane 5,5,13,13-tetraoxide

> <PUBCHEM_IUPAC_SYSTEMATIC_NAME>
(3S,7R,11S,15R)-4,6,12,14-tetraethyl-2,8,10,16-tetraoxa-5lambda6,13lambda6-dithia-4,6,12,14-tetrazatetracyclo[7.7.0.03,7.011,15]hexadecane 5,5,13,13-tetraoxide

> <PUBCHEM_IUPAC_TRADITIONAL_NAME>
(3S,7R,11S,15R)-4,6,12,14-tetraethyl-2,8,10,16-tetraoxa-5lambda6,13lambda6-dithia-4,6,12,14-tetrazatetracyclo[7.7.0.03,7.011,15]hexadecane 5,5,13,13-tetraoxide

> <PUBCHEM_IUPAC_INCHI>
InChI=1S/C14H26N4O8S2/c1-5-15-9-10(16(6-2)27(15,19)20)24-14-13(23-9)25-11-12(26-14)18(8-4)28(21,22)17(11)7-3/h9-14H,5-8H2,1-4H3/t9-,10+,11+,12-,13?,14?

> <PUBCHEM_IUPAC_INCHIKEY>
NVYZRGJDCTVFCD-CPWXTWDFSA-N

> <PUBCHEM_XLOGP3_AA>
-0.4

> <PUBCHEM_EXACT_MASS>
442.11920615

> <PUBCHEM_MOLECULAR_FORMULA>
C14H26N4O8S2

> <PUBCHEM_MOLECULAR_WEIGHT>
442.5

> <PUBCHEM_OPENEYE_CAN_SMILES>
CCN1C2C(N(S1(=O)=O)CC)OC3C(O2)OC4C(O3)N(S(=O)(=O)N4CC)CC

> <PUBCHEM_OPENEYE_ISO_SMILES>
CCN1[C@H]2[C@@H](N(S1(=O)=O)CC)OC3C(O2)O[C@H]4[C@@H](O3)N(S(=O)(=O)N4CC)CC

> <PUBCHEM_CACTVS_TPSA>
135

> <PUBCHEM_MONOISOTOPIC_WEIGHT>
442.11920615

> <PUBCHEM_TOTAL_CHARGE>
0

> <PUBCHEM_HEAVY_ATOM_COUNT>
28

> <PUBCHEM_ATOM_DEF_STEREO_COUNT>
4

> <PUBCHEM_ATOM_UDEF_STEREO_COUNT>
0

> <PUBCHEM_BOND_DEF_STEREO_COUNT>
0

> <PUBCHEM_BOND_UDEF_STEREO_COUNT>
0

> <PUBCHEM_ISOTOPIC_ATOM_COUNT>
0

> <PUBCHEM_COMPONENT_COUNT>
1

> <PUBCHEM_CACTVS_TAUTO_COUNT>
-1

> <PUBCHEM_COORDINATE_TYPE>
1
5
255

> <PUBCHEM_BONDANNOTATIONS>
15  29  6
16  30  6
17  31  6
18  32  6

$$$$
