 
  -OEChem-10192103542D

 65 68  0     1  0  0  0  0  0999 V2000
    9.7182    5.3548    0.0000 S   0  0  0  0  0  0  0  0  0  0  0  0
    6.8671   -3.4202    0.0000 O   0  0  0  0  0  0  0  0  0  0  0  0
    6.0010   -0.9202    0.0000 O   0  0  0  0  0  0  0  0  0  0  0  0
    5.1350   -3.4202    0.0000 O   0  0  0  0  0  0  0  0  0  0  0  0
    8.5991   -2.4202    0.0000 O   0  0  0  0  0  0  0  0  0  0  0  0
    8.5991   -0.4202    0.0000 O   0  0  0  0  0  0  0  0  0  0  0  0
    6.8671   -5.4202    0.0000 O   0  0  0  0  0  0  0  0  0  0  0  0
    5.1350   -6.4202    0.0000 O   0  0  0  0  0  0  0  0  0  0  0  0
    3.4030   -5.4202    0.0000 O   0  0  0  0  0  0  0  0  0  0  0  0
    4.2690   -1.9202    0.0000 O   0  0  0  0  0  0  0  0  0  0  0  0
    2.5369   -3.9202    0.0000 O   0  0  0  0  0  0  0  0  0  0  0  0
    8.9092    5.9425    0.0000 O   0  0  0  0  0  0  0  0  0  0  0  0
   10.5272    4.7670    0.0000 O   0  0  0  0  0  0  0  0  0  0  0  0
    6.8671    0.5798    0.0000 N   0  0  0  0  0  0  0  0  0  0  0  0
    6.0580    1.1676    0.0000 N   0  0  0  0  0  0  0  0  0  0  0  0
    6.3671    2.1187    0.0000 N   0  0  0  0  0  0  0  0  0  0  0  0
   10.3060    6.1638    0.0000 N   0  0  0  0  0  0  0  0  0  0  0  0
    6.8671   -2.4202    0.0000 C   0  0  1  0  0  0  0  0  0  0  0  0
    7.7331   -1.9202    0.0000 C   0  0  1  0  0  0  0  0  0  0  0  0
    6.0010   -1.9202    0.0000 C   0  0  1  0  0  0  0  0  0  0  0  0
    7.7331   -0.9202    0.0000 C   0  0  2  0  0  0  0  0  0  0  0  0
    6.0010   -3.9202    0.0000 C   0  0  1  0  0  0  0  0  0  0  0  0
    6.8671   -0.4202    0.0000 C   0  0  1  0  0  0  0  0  0  0  0  0
    6.0010   -4.9202    0.0000 C   0  0  1  0  0  0  0  0  0  0  0  0
    5.1350   -5.4202    0.0000 C   0  0  2  0  0  0  0  0  0  0  0  0
    4.2690   -4.9202    0.0000 C   0  0  1  0  0  0  0  0  0  0  0  0
    4.2690   -3.9202    0.0000 C   0  0  1  0  0  0  0  0  0  0  0  0
    5.1350   -2.4202    0.0000 C   0  0  0  0  0  0  0  0  0  0  0  0
    3.4030   -3.4202    0.0000 C   0  0  0  0  0  0  0  0  0  0  0  0
    7.6761    1.1676    0.0000 C   0  0  0  0  0  0  0  0  0  0  0  0
    7.3671    2.1187    0.0000 C   0  0  0  0  0  0  0  0  0  0  0  0
    7.9548    2.9277    0.0000 C   0  0  0  0  0  0  0  0  0  0  0  0
    7.5481    3.8412    0.0000 C   0  0  0  0  0  0  0  0  0  0  0  0
    8.9494    2.8232    0.0000 C   0  0  0  0  0  0  0  0  0  0  0  0
    8.1359    4.6503    0.0000 C   0  0  0  0  0  0  0  0  0  0  0  0
    9.5372    3.6322    0.0000 C   0  0  0  0  0  0  0  0  0  0  0  0
    9.1304    4.5457    0.0000 C   0  0  0  0  0  0  0  0  0  0  0  0
    7.4040   -2.7302    0.0000 H   0  0  0  0  0  0  0  0  0  0  0  0
    7.7331   -2.5402    0.0000 H   0  0  0  0  0  0  0  0  0  0  0  0
    5.4641   -1.6102    0.0000 H   0  0  0  0  0  0  0  0  0  0  0  0
    8.2700   -1.2302    0.0000 H   0  0  0  0  0  0  0  0  0  0  0  0
    6.0010   -3.3002    0.0000 H   0  0  0  0  0  0  0  0  0  0  0  0
    7.4040   -0.1102    0.0000 H   0  0  0  0  0  0  0  0  0  0  0  0
    6.0010   -5.5402    0.0000 H   0  0  0  0  0  0  0  0  0  0  0  0
    4.5981   -5.7302    0.0000 H   0  0  0  0  0  0  0  0  0  0  0  0
    4.2690   -5.5402    0.0000 H   0  0  0  0  0  0  0  0  0  0  0  0
    4.2690   -3.3002    0.0000 H   0  0  0  0  0  0  0  0  0  0  0  0
    4.7365   -2.8951    0.0000 H   0  0  0  0  0  0  0  0  0  0  0  0
    5.5335   -2.8951    0.0000 H   0  0  0  0  0  0  0  0  0  0  0  0
    3.8015   -2.9452    0.0000 H   0  0  0  0  0  0  0  0  0  0  0  0
    3.0044   -2.9452    0.0000 H   0  0  0  0  0  0  0  0  0  0  0  0
    9.1360   -2.1102    0.0000 H   0  0  0  0  0  0  0  0  0  0  0  0
    9.1360   -0.7302    0.0000 H   0  0  0  0  0  0  0  0  0  0  0  0
    6.8671   -6.0402    0.0000 H   0  0  0  0  0  0  0  0  0  0  0  0
    4.5981   -6.7302    0.0000 H   0  0  0  0  0  0  0  0  0  0  0  0
    3.4030   -6.0402    0.0000 H   0  0  0  0  0  0  0  0  0  0  0  0
    8.2657    0.9760    0.0000 H   0  0  0  0  0  0  0  0  0  0  0  0
    4.2690   -1.3002    0.0000 H   0  0  0  0  0  0  0  0  0  0  0  0
    2.0000   -3.6102    0.0000 H   0  0  0  0  0  0  0  0  0  0  0  0
    6.9315    3.9060    0.0000 H   0  0  0  0  0  0  0  0  0  0  0  0
    9.2015    2.2568    0.0000 H   0  0  0  0  0  0  0  0  0  0  0  0
    7.8837    5.2167    0.0000 H   0  0  0  0  0  0  0  0  0  0  0  0
   10.1538    3.5674    0.0000 H   0  0  0  0  0  0  0  0  0  0  0  0
   10.0538    6.7302    0.0000 H   0  0  0  0  0  0  0  0  0  0  0  0
   10.9226    6.0990    0.0000 H   0  0  0  0  0  0  0  0  0  0  0  0
  1 12  2  0  0  0  0
  1 13  2  0  0  0  0
  1 17  1  0  0  0  0
  1 37  1  0  0  0  0
 18  2  1  6  0  0  0
 22  2  1  6  0  0  0
  3 20  1  0  0  0  0
  3 23  1  0  0  0  0
  4 22  1  0  0  0  0
  4 27  1  0  0  0  0
 19  5  1  1  0  0  0
  5 52  1  0  0  0  0
 21  6  1  6  0  0  0
  6 53  1  0  0  0  0
 24  7  1  6  0  0  0
  7 54  1  0  0  0  0
 25  8  1  1  0  0  0
  8 55  1  0  0  0  0
 26  9  1  6  0  0  0
  9 56  1  0  0  0  0
 10 28  1  0  0  0  0
 10 58  1  0  0  0  0
 11 29  1  0  0  0  0
 11 59  1  0  0  0  0
 14 15  1  0  0  0  0
 23 14  1  1  0  0  0
 14 30  1  0  0  0  0
 15 16  2  0  0  0  0
 16 31  1  0  0  0  0
 17 64  1  0  0  0  0
 17 65  1  0  0  0  0
 18 19  1  0  0  0  0
 18 20  1  0  0  0  0
 18 38  1  0  0  0  0
 19 21  1  0  0  0  0
 19 39  1  0  0  0  0
 20 28  1  1  0  0  0
 20 40  1  0  0  0  0
 21 23  1  0  0  0  0
 21 41  1  0  0  0  0
 22 24  1  0  0  0  0
 22 42  1  0  0  0  0
 23 43  1  0  0  0  0
 24 25  1  0  0  0  0
 24 44  1  0  0  0  0
 25 26  1  0  0  0  0
 25 45  1  0  0  0  0
 26 27  1  0  0  0  0
 26 46  1  0  0  0  0
 27 29  1  1  0  0  0
 27 47  1  0  0  0  0
 28 48  1  0  0  0  0
 28 49  1  0  0  0  0
 29 50  1  0  0  0  0
 29 51  1  0  0  0  0
 30 31  2  0  0  0  0
 30 57  1  0  0  0  0
 31 32  1  0  0  0  0
 32 33  2  0  0  0  0
 32 34  1  0  0  0  0
 33 35  1  0  0  0  0
 33 60  1  0  0  0  0
 34 36  2  0  0  0  0
 34 61  1  0  0  0  0
 35 37  2  0  0  0  0
 35 62  1  0  0  0  0
 36 37  1  0  0  0  0
 36 63  1  0  0  0  0
M  END
> <PUBCHEM_COMPOUND_CID>
24823480

> <PUBCHEM_COMPOUND_CANONICALIZED>
1

> <PUBCHEM_CACTVS_COMPLEXITY>
859

> <PUBCHEM_CACTVS_HBOND_ACCEPTOR>
15

> <PUBCHEM_CACTVS_HBOND_DONOR>
8

> <PUBCHEM_CACTVS_ROTATABLE_BOND>
7

> <PUBCHEM_CACTVS_SUBSKEYS>
AAADceB7vABAAAAAAAAAAAAAAAAAAWAAAAA0SIAAAAAAAAABwAAAHgQYSAAADBzx3gc8iZIIBgKiAzRnRHDCBBQxkgAY2Dg4dJgbcKLAkRG+YABngADfyAfw8I4OEAAAAAAAAAAgAAAAAAAAAAAAAAAAAA==

> <PUBCHEM_IUPAC_OPENEYE_NAME>
4-[1-[(2R,3R,4R,5S,6R)-3,4-dihydroxy-6-(hydroxymethyl)-5-[(2R,3R,4S,5S,6R)-3,4,5-trihydroxy-6-(hydroxymethyl)tetrahydropyran-2-yl]oxy-tetrahydropyran-2-yl]triazol-4-yl]benzenesulfonamide

> <PUBCHEM_IUPAC_CAS_NAME>
4-[1-[(2R,3R,4R,5S,6R)-3,4-dihydroxy-6-(hydroxymethyl)-5-[[(2R,3R,4S,5S,6R)-3,4,5-trihydroxy-6-(hydroxymethyl)-2-oxanyl]oxy]-2-oxanyl]-4-triazolyl]benzenesulfonamide

> <PUBCHEM_IUPAC_NAME_MARKUP>
4-[1-[(2<I>R</I>,3<I>R</I>,4<I>R</I>,5<I>S</I>,6<I>R</I>)-3,4-dihydroxy-6-(hydroxymethyl)-5-[(2<I>R</I>,3<I>R</I>,4<I>S</I>,5<I>S</I>,6<I>R</I>)-3,4,5-trihydroxy-6-(hydroxymethyl)oxan-2-yl]oxyoxan-2-yl]triazol-4-yl]benzenesulfonamide

> <PUBCHEM_IUPAC_NAME>
4-[1-[(2R,3R,4R,5S,6R)-3,4-dihydroxy-6-(hydroxymethyl)-5-[(2R,3R,4S,5S,6R)-3,4,5-trihydroxy-6-(hydroxymethyl)oxan-2-yl]oxyoxan-2-yl]triazol-4-yl]benzenesulfonamide

> <PUBCHEM_IUPAC_SYSTEMATIC_NAME>
4-[1-[(2R,3R,4R,5S,6R)-6-(hydroxymethyl)-5-[(2R,3R,4S,5S,6R)-6-(hydroxymethyl)-3,4,5-tris(oxidanyl)oxan-2-yl]oxy-3,4-bis(oxidanyl)oxan-2-yl]-1,2,3-triazol-4-yl]benzenesulfonamide

> <PUBCHEM_IUPAC_TRADITIONAL_NAME>
4-[1-[(2R,3R,4R,5S,6R)-3,4-dihydroxy-6-methylol-5-[(2R,3R,4S,5S,6R)-3,4,5-trihydroxy-6-methylol-tetrahydropyran-2-yl]oxy-tetrahydropyran-2-yl]triazol-4-yl]benzenesulfonamide

> <PUBCHEM_IUPAC_INCHI>
InChI=1S/C20H28N4O12S/c21-37(32,33)9-3-1-8(2-4-9)10-5-24(23-22-10)19-16(30)15(29)18(12(7-26)34-19)36-20-17(31)14(28)13(27)11(6-25)35-20/h1-5,11-20,25-31H,6-7H2,(H2,21,32,33)/t11-,12-,13-,14+,15-,16-,17-,18-,19-,20-/m1/s1

> <PUBCHEM_IUPAC_INCHIKEY>
AVCROWIPQIVITK-OIIXUNCGSA-N

> <PUBCHEM_XLOGP3_AA>
-4.5

> <PUBCHEM_EXACT_MASS>
548.14244351

> <PUBCHEM_MOLECULAR_FORMULA>
C20H28N4O12S

> <PUBCHEM_MOLECULAR_WEIGHT>
548.5

> <PUBCHEM_OPENEYE_CAN_SMILES>
C1=CC(=CC=C1C2=CN(N=N2)C3C(C(C(C(O3)CO)OC4C(C(C(C(O4)CO)O)O)O)O)O)S(=O)(=O)N

> <PUBCHEM_OPENEYE_ISO_SMILES>
C1=CC(=CC=C1C2=CN(N=N2)[C@H]3[C@@H]([C@H]([C@@H]([C@H](O3)CO)O[C@@H]4[C@@H]([C@H]([C@@H]([C@H](O4)CO)O)O)O)O)O)S(=O)(=O)N

> <PUBCHEM_CACTVS_TPSA>
269

> <PUBCHEM_MONOISOTOPIC_WEIGHT>
548.14244351

> <PUBCHEM_TOTAL_CHARGE>
0

> <PUBCHEM_HEAVY_ATOM_COUNT>
37

> <PUBCHEM_ATOM_DEF_STEREO_COUNT>
10

> <PUBCHEM_ATOM_UDEF_STEREO_COUNT>
0

> <PUBCHEM_BOND_DEF_STEREO_COUNT>
0

> <PUBCHEM_BOND_UDEF_STEREO_COUNT>
0

> <PUBCHEM_ISOTOPIC_ATOM_COUNT>
0

> <PUBCHEM_COMPONENT_COUNT>
1

> <PUBCHEM_CACTVS_TAUTO_COUNT>
-1

> <PUBCHEM_COORDINATE_TYPE>
1
5
255

> <PUBCHEM_BONDANNOTATIONS>
14  15  8
23  14  5
14  30  8
15  16  8
16  31  8
18  2  6
22  2  6
20  28  5
27  29  5
30  31  8
32  33  8
32  34  8
33  35  8
34  36  8
35  37  8
36  37  8
19  5  5
21  6  6
24  7  6
25  8  5
26  9  6

$$$$
