 
  -OEChem-10192104262D

 47 48  0     1  0  0  0  0  0999 V2000
    6.8671   -0.5950    0.0000 O   0  0  0  0  0  0  0  0  0  0  0  0
    5.1350   -0.5950    0.0000 O   0  0  0  0  0  0  0  0  0  0  0  0
    6.0010    0.9050    0.0000 O   0  0  0  0  0  0  0  0  0  0  0  0
    6.8671   -2.5950    0.0000 O   0  0  0  0  0  0  0  0  0  0  0  0
    5.1350   -3.5950    0.0000 O   0  0  0  0  0  0  0  0  0  0  0  0
    3.4030   -2.5950    0.0000 O   0  0  0  0  0  0  0  0  0  0  0  0
    8.5991    0.4050    0.0000 O   0  0  0  0  0  0  0  0  0  0  0  0
    8.5991    2.4050    0.0000 O   0  0  0  0  0  0  0  0  0  0  0  0
    6.8671    3.4050    0.0000 O   0  0  0  0  0  0  0  0  0  0  0  0
    2.5369   -1.0950    0.0000 O   0  0  0  0  0  0  0  0  0  0  0  0
    5.1350    3.4050    0.0000 O   0  0  0  0  0  0  0  0  0  0  0  0
    4.2690    1.9050    0.0000 O   0  0  0  0  0  0  0  0  0  0  0  0
    6.0010   -1.0950    0.0000 C   0  0  2  0  0  0  0  0  0  0  0  0
    6.0010   -2.0950    0.0000 C   0  0  1  0  0  0  0  0  0  0  0  0
    5.1350   -2.5950    0.0000 C   0  0  2  0  0  0  0  0  0  0  0  0
    4.2690   -2.0950    0.0000 C   0  0  1  0  0  0  0  0  0  0  0  0
    6.8671    0.4050    0.0000 C   0  0  2  0  0  0  0  0  0  0  0  0
    7.7331    0.9050    0.0000 C   0  0  1  0  0  0  0  0  0  0  0  0
    4.2690   -1.0950    0.0000 C   0  0  1  0  0  0  0  0  0  0  0  0
    7.7331    1.9050    0.0000 C   0  0  2  0  0  0  0  0  0  0  0  0
    6.8671    2.4050    0.0000 C   0  0  1  0  0  0  0  0  0  0  0  0
    6.0010    1.9050    0.0000 C   0  0  1  0  0  0  0  0  0  0  0  0
    3.4030   -0.5950    0.0000 C   0  0  0  0  0  0  0  0  0  0  0  0
    5.1350    2.4050    0.0000 C   0  0  0  0  0  0  0  0  0  0  0  0
    4.2690    3.9050    0.0000 C   0  0  0  0  0  0  0  0  0  0  0  0
    6.5380   -1.4050    0.0000 H   0  0  0  0  0  0  0  0  0  0  0  0
    6.0010   -2.7150    0.0000 H   0  0  0  0  0  0  0  0  0  0  0  0
    4.5981   -2.9050    0.0000 H   0  0  0  0  0  0  0  0  0  0  0  0
    4.2690   -2.7150    0.0000 H   0  0  0  0  0  0  0  0  0  0  0  0
    7.4040    0.0950    0.0000 H   0  0  0  0  0  0  0  0  0  0  0  0
    8.2700    1.2150    0.0000 H   0  0  0  0  0  0  0  0  0  0  0  0
    4.2690   -0.4750    0.0000 H   0  0  0  0  0  0  0  0  0  0  0  0
    7.7331    2.5250    0.0000 H   0  0  0  0  0  0  0  0  0  0  0  0
    6.3301    2.7150    0.0000 H   0  0  0  0  0  0  0  0  0  0  0  0
    5.4641    1.5950    0.0000 H   0  0  0  0  0  0  0  0  0  0  0  0
    3.8015   -0.1201    0.0000 H   0  0  0  0  0  0  0  0  0  0  0  0
    3.0044   -0.1201    0.0000 H   0  0  0  0  0  0  0  0  0  0  0  0
    6.8671   -3.2150    0.0000 H   0  0  0  0  0  0  0  0  0  0  0  0
    4.5981   -3.9050    0.0000 H   0  0  0  0  0  0  0  0  0  0  0  0
    3.4030   -3.2150    0.0000 H   0  0  0  0  0  0  0  0  0  0  0  0
    9.1360    0.7150    0.0000 H   0  0  0  0  0  0  0  0  0  0  0  0
    9.1360    2.0950    0.0000 H   0  0  0  0  0  0  0  0  0  0  0  0
    7.4040    3.7150    0.0000 H   0  0  0  0  0  0  0  0  0  0  0  0
    2.0000   -0.7850    0.0000 H   0  0  0  0  0  0  0  0  0  0  0  0
    4.5790    4.4419    0.0000 H   0  0  0  0  0  0  0  0  0  0  0  0
    3.7320    4.2150    0.0000 H   0  0  0  0  0  0  0  0  0  0  0  0
    3.9590    3.3681    0.0000 H   0  0  0  0  0  0  0  0  0  0  0  0
 13  1  1  1  0  0  0
 17  1  1  6  0  0  0
  2 13  1  0  0  0  0
  2 19  1  0  0  0  0
  3 17  1  0  0  0  0
  3 22  1  0  0  0  0
 14  4  1  6  0  0  0
  4 38  1  0  0  0  0
 15  5  1  1  0  0  0
  5 39  1  0  0  0  0
 16  6  1  6  0  0  0
  6 40  1  0  0  0  0
 18  7  1  1  0  0  0
  7 41  1  0  0  0  0
 20  8  1  6  0  0  0
  8 42  1  0  0  0  0
 21  9  1  1  0  0  0
  9 43  1  0  0  0  0
 10 23  1  0  0  0  0
 10 44  1  0  0  0  0
 11 24  1  0  0  0  0
 11 25  1  0  0  0  0
 12 24  2  0  0  0  0
 13 14  1  0  0  0  0
 13 26  1  0  0  0  0
 14 15  1  0  0  0  0
 14 27  1  0  0  0  0
 15 16  1  0  0  0  0
 15 28  1  0  0  0  0
 16 19  1  0  0  0  0
 16 29  1  0  0  0  0
 17 18  1  0  0  0  0
 17 30  1  0  0  0  0
 18 20  1  0  0  0  0
 18 31  1  0  0  0  0
 19 23  1  1  0  0  0
 19 32  1  0  0  0  0
 20 21  1  0  0  0  0
 20 33  1  0  0  0  0
 21 22  1  0  0  0  0
 21 34  1  0  0  0  0
 22 24  1  6  0  0  0
 22 35  1  0  0  0  0
 23 36  1  0  0  0  0
 23 37  1  0  0  0  0
 25 45  1  0  0  0  0
 25 46  1  0  0  0  0
 25 47  1  0  0  0  0
M  END
> <PUBCHEM_COMPOUND_CID>
101844621

> <PUBCHEM_COMPOUND_CANONICALIZED>
1

> <PUBCHEM_CACTVS_COMPLEXITY>
460

> <PUBCHEM_CACTVS_HBOND_ACCEPTOR>
12

> <PUBCHEM_CACTVS_HBOND_DONOR>
7

> <PUBCHEM_CACTVS_ROTATABLE_BOND>
5

> <PUBCHEM_CACTVS_SUBSKEYS>
AAADceBwPAAAAAAAAAAAAAAAAAAAAAAAAAAkSAAAAAAAAAAAAAAAGgAACAAACBSwgAMCCAAABgAIAACQCAIAAAAAAAAAAAFAAAAREBYAAAQiQAAFIAAHAAHKbAxAAAAAAAAAAAAAAAAAAAAAAAAAAAAAAA==

> <PUBCHEM_IUPAC_OPENEYE_NAME>
methyl (2S,3S,4S,5R,6S)-3,4,5-trihydroxy-6-[(2S,3R,4S,5S,6R)-3,4,5-trihydroxy-6-(hydroxymethyl)tetrahydropyran-2-yl]oxy-tetrahydropyran-2-carboxylate

> <PUBCHEM_IUPAC_CAS_NAME>
(2S,3S,4S,5R,6S)-3,4,5-trihydroxy-6-[[(2S,3R,4S,5S,6R)-3,4,5-trihydroxy-6-(hydroxymethyl)-2-oxanyl]oxy]-2-oxanecarboxylic acid methyl ester

> <PUBCHEM_IUPAC_NAME_MARKUP>
methyl (2<I>S</I>,3<I>S</I>,4<I>S</I>,5<I>R</I>,6<I>S</I>)-3,4,5-trihydroxy-6-[(2<I>S</I>,3<I>R</I>,4<I>S</I>,5<I>S</I>,6<I>R</I>)-3,4,5-trihydroxy-6-(hydroxymethyl)oxan-2-yl]oxyoxane-2-carboxylate

> <PUBCHEM_IUPAC_NAME>
methyl (2S,3S,4S,5R,6S)-3,4,5-trihydroxy-6-[(2S,3R,4S,5S,6R)-3,4,5-trihydroxy-6-(hydroxymethyl)oxan-2-yl]oxyoxane-2-carboxylate

> <PUBCHEM_IUPAC_SYSTEMATIC_NAME>
methyl (2S,3S,4S,5R,6S)-6-[(2S,3R,4S,5S,6R)-6-(hydroxymethyl)-3,4,5-tris(oxidanyl)oxan-2-yl]oxy-3,4,5-tris(oxidanyl)oxane-2-carboxylate

> <PUBCHEM_IUPAC_TRADITIONAL_NAME>
(2S,3S,4S,5R,6S)-3,4,5-trihydroxy-6-[(2S,3R,4S,5S,6R)-3,4,5-trihydroxy-6-methylol-tetrahydropyran-2-yl]oxy-tetrahydropyran-2-carboxylic acid methyl ester

> <PUBCHEM_IUPAC_INCHI>
InChI=1S/C13H22O12/c1-22-11(21)10-7(18)6(17)9(20)13(24-10)25-12-8(19)5(16)4(15)3(2-14)23-12/h3-10,12-20H,2H2,1H3/t3-,4-,5+,6+,7+,8-,9-,10+,12+,13+/m1/s1

> <PUBCHEM_IUPAC_INCHIKEY>
CYRBLQITUVJHSK-LAMGUGOKSA-N

> <PUBCHEM_XLOGP3_AA>
-3.6

> <PUBCHEM_EXACT_MASS>
370.11112613

> <PUBCHEM_MOLECULAR_FORMULA>
C13H22O12

> <PUBCHEM_MOLECULAR_WEIGHT>
370.31

> <PUBCHEM_OPENEYE_CAN_SMILES>
COC(=O)C1C(C(C(C(O1)OC2C(C(C(C(O2)CO)O)O)O)O)O)O

> <PUBCHEM_OPENEYE_ISO_SMILES>
COC(=O)[C@@H]1[C@H]([C@@H]([C@H]([C@@H](O1)O[C@H]2[C@@H]([C@H]([C@@H]([C@H](O2)CO)O)O)O)O)O)O

> <PUBCHEM_CACTVS_TPSA>
196

> <PUBCHEM_MONOISOTOPIC_WEIGHT>
370.11112613

> <PUBCHEM_TOTAL_CHARGE>
0

> <PUBCHEM_HEAVY_ATOM_COUNT>
25

> <PUBCHEM_ATOM_DEF_STEREO_COUNT>
10

> <PUBCHEM_ATOM_UDEF_STEREO_COUNT>
0

> <PUBCHEM_BOND_DEF_STEREO_COUNT>
0

> <PUBCHEM_BOND_UDEF_STEREO_COUNT>
0

> <PUBCHEM_ISOTOPIC_ATOM_COUNT>
0

> <PUBCHEM_COMPONENT_COUNT>
1

> <PUBCHEM_CACTVS_TAUTO_COUNT>
-1

> <PUBCHEM_COORDINATE_TYPE>
1
5
255

> <PUBCHEM_BONDANNOTATIONS>
13  1  5
17  1  6
19  23  5
22  24  6
14  4  6
15  5  5
16  6  6
18  7  5
20  8  6
21  9  5

$$$$
