 
  -OEChem-10192103562D

 55 58  0     1  0  0  0  0  0999 V2000
    4.5784    4.9363    0.0000 O   0  0  0  0  0  0  0  0  0  0  0  0
    3.1718    2.8808    0.0000 O   0  0  0  0  0  0  0  0  0  0  0  0
    8.6425   -2.0450    0.0000 O   0  0  0  0  0  0  0  0  0  0  0  0
   10.5398   -0.4313    0.0000 O   0  0  0  0  0  0  0  0  0  0  0  0
    5.7592    2.8420    0.0000 O   0  0  0  0  0  0  0  0  0  0  0  0
    8.3335    0.5240    0.0000 O   0  0  0  0  0  0  0  0  0  0  0  0
   10.8504   -2.9913    0.0000 O   0  0  0  0  0  0  0  0  0  0  0  0
    5.3990    1.1478    0.0000 O   0  0  0  0  0  0  0  0  0  0  0  0
    6.6862   -0.0112    0.0000 O   0  0  0  0  0  0  0  0  0  0  0  0
   12.4968   -2.4532    0.0000 O   0  0  0  0  0  0  0  0  0  0  0  0
   13.4288   -5.3048    0.0000 O   0  0  0  0  0  0  0  0  0  0  0  0
   13.7860   -3.6099    0.0000 O   0  0  0  0  0  0  0  0  0  0  0  0
    3.3798    3.8589    0.0000 C   0  0  3  0  0  0  0  0  0  0  0  0
    4.3743    3.9634    0.0000 C   0  0  3  0  0  0  0  0  0  0  0  0
    2.9778    4.7681    0.0000 C   0  0  3  0  0  0  0  0  0  0  0  0
    9.5936   -0.7360    0.0000 C   0  0  3  0  0  0  0  0  0  0  0  0
    9.5936   -1.7360    0.0000 C   0  0  3  0  0  0  0  0  0  0  0  0
    4.7810    3.0499    0.0000 C   0  0  3  0  0  0  0  0  0  0  0  0
    8.6425   -0.4270    0.0000 C   0  0  3  0  0  0  0  0  0  0  0  0
   10.5398   -2.0408    0.0000 C   0  0  3  0  0  0  0  0  0  0  0  0
    3.7171    5.4326    0.0000 C   0  0  0  0  0  0  0  0  0  0  0  0
    4.0379    2.3808    0.0000 C   0  0  0  0  0  0  0  0  0  0  0  0
    8.0547   -1.2360    0.0000 C   0  0  0  0  0  0  0  0  0  0  0  0
   11.1234   -1.2360    0.0000 C   0  0  0  0  0  0  0  0  0  0  0  0
    2.0000    4.9777    0.0000 C   0  0  0  0  0  0  0  0  0  0  0  0
    6.0682    1.8909    0.0000 C   0  0  0  0  0  0  0  0  0  0  0  0
    7.3553    0.7320    0.0000 C   0  0  0  0  0  0  0  0  0  0  0  0
    7.0463    1.6830    0.0000 C   0  0  0  0  0  0  0  0  0  0  0  0
   11.8290   -3.1975    0.0000 C   0  0  0  0  0  0  0  0  0  0  0  0
   12.1396   -4.1480    0.0000 C   0  0  0  0  0  0  0  0  0  0  0  0
   13.1181   -4.3542    0.0000 C   0  0  0  0  0  0  0  0  0  0  0  0
    2.7631    3.7949    0.0000 H   0  0  0  0  0  0  0  0  0  0  0  0
    4.9908    4.0290    0.0000 H   0  0  0  0  0  0  0  0  0  0  0  0
    2.5866    4.2871    0.0000 H   0  0  0  0  0  0  0  0  0  0  0  0
    9.5944   -0.1160    0.0000 H   0  0  0  0  0  0  0  0  0  0  0  0
    9.5944   -2.3560    0.0000 H   0  0  0  0  0  0  0  0  0  0  0  0
    5.1712    3.5317    0.0000 H   0  0  0  0  0  0  0  0  0  0  0  0
    9.0809    0.0114    0.0000 H   0  0  0  0  0  0  0  0  0  0  0  0
   10.1023   -2.4801    0.0000 H   0  0  0  0  0  0  0  0  0  0  0  0
    4.0814    5.9343    0.0000 H   0  0  0  0  0  0  0  0  0  0  0  0
    3.2565    5.8476    0.0000 H   0  0  0  0  0  0  0  0  0  0  0  0
    3.6734    1.8792    0.0000 H   0  0  0  0  0  0  0  0  0  0  0  0
    4.4986    1.9659    0.0000 H   0  0  0  0  0  0  0  0  0  0  0  0
    7.5940   -0.8212    0.0000 H   0  0  0  0  0  0  0  0  0  0  0  0
    7.5940   -1.6509    0.0000 H   0  0  0  0  0  0  0  0  0  0  0  0
   11.5843   -1.6508    0.0000 H   0  0  0  0  0  0  0  0  0  0  0  0
   11.5843   -0.8213    0.0000 H   0  0  0  0  0  0  0  0  0  0  0  0
    2.1300    5.5839    0.0000 H   0  0  0  0  0  0  0  0  0  0  0  0
    1.3938    5.1076    0.0000 H   0  0  0  0  0  0  0  0  0  0  0  0
    1.8700    4.3715    0.0000 H   0  0  0  0  0  0  0  0  0  0  0  0
    7.6603    1.7693    0.0000 H   0  0  0  0  0  0  0  0  0  0  0  0
    7.0680    2.3026    0.0000 H   0  0  0  0  0  0  0  0  0  0  0  0
   11.5258   -4.2354    0.0000 H   0  0  0  0  0  0  0  0  0  0  0  0
   12.1191   -4.7677    0.0000 H   0  0  0  0  0  0  0  0  0  0  0  0
   14.0355   -5.4326    0.0000 H   0  0  0  0  0  0  0  0  0  0  0  0
  1 14  1  0  0  0  0
  1 21  1  0  0  0  0
  2 13  1  0  0  0  0
  2 22  1  0  0  0  0
  3 17  1  0  0  0  0
  3 23  1  0  0  0  0
  4 16  1  0  0  0  0
  4 24  1  0  0  0  0
  5 18  1  0  0  0  0
  5 26  1  0  0  0  0
  6 19  1  0  0  0  0
  6 27  1  0  0  0  0
  7 20  1  0  0  0  0
  7 29  1  0  0  0  0
  8 26  2  0  0  0  0
  9 27  2  0  0  0  0
 10 29  2  0  0  0  0
 11 31  1  0  0  0  0
 11 55  1  0  0  0  0
 12 31  2  0  0  0  0
 13 14  1  0  0  0  0
 13 15  1  0  0  0  0
 13 32  1  0  0  0  0
 14 18  1  0  0  0  0
 14 33  1  0  0  0  0
 15 21  1  0  0  0  0
 15 25  1  0  0  0  0
 15 34  1  0  0  0  0
 16 17  1  0  0  0  0
 16 19  1  0  0  0  0
 16 35  1  0  0  0  0
 17 20  1  0  0  0  0
 17 36  1  0  0  0  0
 18 22  1  0  0  0  0
 18 37  1  0  0  0  0
 19 23  1  0  0  0  0
 19 38  1  0  0  0  0
 20 24  1  0  0  0  0
 20 39  1  0  0  0  0
 21 40  1  0  0  0  0
 21 41  1  0  0  0  0
 22 42  1  0  0  0  0
 22 43  1  0  0  0  0
 23 44  1  0  0  0  0
 23 45  1  0  0  0  0
 24 46  1  0  0  0  0
 24 47  1  0  0  0  0
 25 48  1  0  0  0  0
 25 49  1  0  0  0  0
 25 50  1  0  0  0  0
 26 28  1  0  0  0  0
 27 28  1  0  0  0  0
 28 51  1  0  0  0  0
 28 52  1  0  0  0  0
 29 30  1  0  0  0  0
 30 31  1  0  0  0  0
 30 53  1  0  0  0  0
 30 54  1  0  0  0  0
M  END
> <PUBCHEM_COMPOUND_CID>
122693355

> <PUBCHEM_COMPOUND_CANONICALIZED>
1

> <PUBCHEM_CACTVS_COMPLEXITY>
737

> <PUBCHEM_CACTVS_HBOND_ACCEPTOR>
12

> <PUBCHEM_CACTVS_HBOND_DONOR>
1

> <PUBCHEM_CACTVS_ROTATABLE_BOND>
10

> <PUBCHEM_CACTVS_SUBSKEYS>
AAADceB4PAAAAAAAAAAAAAAAAAAAASJEiQAAAAAAAAASJAAAAAAAGgAACAAADRSggAICCAAABgAIAACQCAAAAAAAAAAAAAEAAAABAAYIAAACQAAFIAACAAHAYBwMAAAAAAAAAAAAAAAAAAAAAAAAAAAAAA==

> <PUBCHEM_IUPAC_OPENEYE_NAME>
3-[[6-[3-[(3-methyl-2,3,3a,5,6,6a-hexahydrofuro[3,2-b]furan-6-yl)oxy]-3-oxo-propanoyl]oxy-2,3,3a,5,6,6a-hexahydrofuro[3,2-b]furan-3-yl]oxy]-3-oxo-propanoic acid

> <PUBCHEM_IUPAC_CAS_NAME>
3-[[6-[3-[(3-methyl-2,3,3a,5,6,6a-hexahydrofuro[3,2-b]furan-6-yl)oxy]-1,3-dioxopropoxy]-2,3,3a,5,6,6a-hexahydrofuro[3,2-b]furan-3-yl]oxy]-3-oxopropanoic acid

> <PUBCHEM_IUPAC_NAME_MARKUP>
3-[[6-[3-[(3-methyl-2,3,3<I>a</I>,5,6,6<I>a</I>-hexahydrofuro[3,2-b]furan-6-yl)oxy]-3-oxopropanoyl]oxy-2,3,3<I>a</I>,5,6,6<I>a</I>-hexahydrofuro[3,2-b]furan-3-yl]oxy]-3-oxopropanoic acid

> <PUBCHEM_IUPAC_NAME>
3-[[6-[3-[(3-methyl-2,3,3a,5,6,6a-hexahydrofuro[3,2-b]furan-6-yl)oxy]-3-oxopropanoyl]oxy-2,3,3a,5,6,6a-hexahydrofuro[3,2-b]furan-3-yl]oxy]-3-oxopropanoic acid

> <PUBCHEM_IUPAC_SYSTEMATIC_NAME>
3-[[6-[3-[(3-methyl-2,3,3a,5,6,6a-hexahydrofuro[3,2-b]furan-6-yl)oxy]-3-oxidanylidene-propanoyl]oxy-2,3,3a,5,6,6a-hexahydrofuro[3,2-b]furan-3-yl]oxy]-3-oxidanylidene-propanoic acid

> <PUBCHEM_IUPAC_TRADITIONAL_NAME>
3-keto-3-[[6-[3-keto-3-[(3-methyl-2,3,3a,5,6,6a-hexahydrofuro[3,2-b]furan-6-yl)oxy]propanoyl]oxy-2,3,3a,5,6,6a-hexahydrofuro[3,2-b]furan-3-yl]oxy]propionic acid

> <PUBCHEM_IUPAC_INCHI>
InChI=1S/C19H24O12/c1-8-4-25-17-9(5-26-16(8)17)30-14(23)3-15(24)31-11-7-28-18-10(6-27-19(11)18)29-13(22)2-12(20)21/h8-11,16-19H,2-7H2,1H3,(H,20,21)

> <PUBCHEM_IUPAC_INCHIKEY>
MXYNITBWRCAOPD-UHFFFAOYSA-N

> <PUBCHEM_XLOGP3_AA>
-0.5

> <PUBCHEM_EXACT_MASS>
444.12677620

> <PUBCHEM_MOLECULAR_FORMULA>
C19H24O12

> <PUBCHEM_MOLECULAR_WEIGHT>
444.4

> <PUBCHEM_OPENEYE_CAN_SMILES>
CC1COC2C1OCC2OC(=O)CC(=O)OC3COC4C3OCC4OC(=O)CC(=O)O

> <PUBCHEM_OPENEYE_ISO_SMILES>
CC1COC2C1OCC2OC(=O)CC(=O)OC3COC4C3OCC4OC(=O)CC(=O)O

> <PUBCHEM_CACTVS_TPSA>
153

> <PUBCHEM_MONOISOTOPIC_WEIGHT>
444.12677620

> <PUBCHEM_TOTAL_CHARGE>
0

> <PUBCHEM_HEAVY_ATOM_COUNT>
31

> <PUBCHEM_ATOM_DEF_STEREO_COUNT>
0

> <PUBCHEM_ATOM_UDEF_STEREO_COUNT>
8

> <PUBCHEM_BOND_DEF_STEREO_COUNT>
0

> <PUBCHEM_BOND_UDEF_STEREO_COUNT>
0

> <PUBCHEM_ISOTOPIC_ATOM_COUNT>
0

> <PUBCHEM_COMPONENT_COUNT>
1

> <PUBCHEM_CACTVS_TAUTO_COUNT>
-1

> <PUBCHEM_COORDINATE_TYPE>
1
5
255

> <PUBCHEM_BONDANNOTATIONS>
14  1  3
15  25  3
13  2  3
17  3  3
16  4  3
18  5  3
19  6  3
20  7  3

$$$$
