 
  -OEChem-10192104312D

 35 35  0     1  0  0  0  0  0999 V2000
    6.2524   -1.4739    0.0000 S   0  0  0  0  0  0  0  0  0  0  0  0
    8.3347    0.7694    0.0000 S   0  0  3  0  0  0  0  0  0  0  0  0
    4.1701    0.7694    0.0000 S   0  0  3  0  0  0  0  0  0  0  0  0
    7.0614   -0.8861    0.0000 O   0  0  0  0  0  0  0  0  0  0  0  0
    5.4434   -0.8861    0.0000 O   0  0  0  0  0  0  0  0  0  0  0  0
    5.6646   -2.2829    0.0000 O   0  0  0  0  0  0  0  0  0  0  0  0
    6.8402   -2.2829    0.0000 O   0  0  0  0  0  0  0  0  0  0  0  0
    8.7414   -0.1441    0.0000 O   0  0  0  0  0  0  0  0  0  0  0  0
    3.7634   -0.1441    0.0000 O   0  0  0  0  0  0  0  0  0  0  0  0
    6.7524    0.0649    0.0000 C   0  0  3  0  0  0  0  0  0  0  0  0
    5.7524    0.0649    0.0000 C   0  0  3  0  0  0  0  0  0  0  0  0
    7.3402    0.8739    0.0000 C   0  0  0  0  0  0  0  0  0  0  0  0
    5.1646    0.8739    0.0000 C   0  0  0  0  0  0  0  0  0  0  0  0
    8.9225    1.5784    0.0000 C   0  0  0  0  0  0  0  0  0  0  0  0
    3.5823    1.5784    0.0000 C   0  0  0  0  0  0  0  0  0  0  0  0
    9.9170    1.4739    0.0000 C   0  0  0  0  0  0  0  0  0  0  0  0
    2.5878    1.4739    0.0000 C   0  0  0  0  0  0  0  0  0  0  0  0
   10.5048    2.2829    0.0000 C   0  0  0  0  0  0  0  0  0  0  0  0
    2.0000    2.2829    0.0000 C   0  0  0  0  0  0  0  0  0  0  0  0
    7.3648   -0.0321    0.0000 H   0  0  0  0  0  0  0  0  0  0  0  0
    5.1400   -0.0321    0.0000 H   0  0  0  0  0  0  0  0  0  0  0  0
    7.5111    1.4699    0.0000 H   0  0  0  0  0  0  0  0  0  0  0  0
    6.7829    1.1457    0.0000 H   0  0  0  0  0  0  0  0  0  0  0  0
    5.7219    1.1457    0.0000 H   0  0  0  0  0  0  0  0  0  0  0  0
    4.9937    1.4699    0.0000 H   0  0  0  0  0  0  0  0  0  0  0  0
    9.0934    2.1744    0.0000 H   0  0  0  0  0  0  0  0  0  0  0  0
    8.3652    1.8502    0.0000 H   0  0  0  0  0  0  0  0  0  0  0  0
    4.1396    1.8502    0.0000 H   0  0  0  0  0  0  0  0  0  0  0  0
    3.4114    2.1744    0.0000 H   0  0  0  0  0  0  0  0  0  0  0  0
   10.1692    0.9075    0.0000 H   0  0  0  0  0  0  0  0  0  0  0  0
    2.3356    0.9075    0.0000 H   0  0  0  0  0  0  0  0  0  0  0  0
   11.1214    2.2181    0.0000 H   0  0  0  0  0  0  0  0  0  0  0  0
   10.2526    2.8493    0.0000 H   0  0  0  0  0  0  0  0  0  0  0  0
    2.2522    2.8493    0.0000 H   0  0  0  0  0  0  0  0  0  0  0  0
    1.3834    2.2181    0.0000 H   0  0  0  0  0  0  0  0  0  0  0  0
  1  4  1  0  0  0  0
  1  5  1  0  0  0  0
  1  6  2  0  0  0  0
  1  7  2  0  0  0  0
  2  8  2  0  0  0  0
  2 12  1  0  0  0  0
  2 14  1  0  0  0  0
  3  9  2  0  0  0  0
  3 13  1  0  0  0  0
  3 15  1  0  0  0  0
  4 10  1  0  0  0  0
  5 11  1  0  0  0  0
 10 11  1  0  0  0  0
 10 12  1  0  0  0  0
 10 20  1  0  0  0  0
 11 13  1  0  0  0  0
 11 21  1  0  0  0  0
 12 22  1  0  0  0  0
 12 23  1  0  0  0  0
 13 24  1  0  0  0  0
 13 25  1  0  0  0  0
 14 16  1  0  0  0  0
 14 26  1  0  0  0  0
 14 27  1  0  0  0  0
 15 17  1  0  0  0  0
 15 28  1  0  0  0  0
 15 29  1  0  0  0  0
 16 18  2  0  0  0  0
 16 30  1  0  0  0  0
 17 19  2  0  0  0  0
 17 31  1  0  0  0  0
 18 32  1  0  0  0  0
 18 33  1  0  0  0  0
 19 34  1  0  0  0  0
 19 35  1  0  0  0  0
M  END
> <PUBCHEM_COMPOUND_CID>
89314003

> <PUBCHEM_COMPOUND_CANONICALIZED>
1

> <PUBCHEM_CACTVS_COMPLEXITY>
440

> <PUBCHEM_CACTVS_HBOND_ACCEPTOR>
8

> <PUBCHEM_CACTVS_HBOND_DONOR>
0

> <PUBCHEM_CACTVS_ROTATABLE_BOND>
8

> <PUBCHEM_CACTVS_SUBSKEYS>
AAADceBwOABgAAAAAAAAAAAAAAAAASAAAAAAAAAAAAAAAAAAAAAAGgQAAAAACBSkwAKAAAAAAAqAACBCAHBAAAAAABAIAAAAAAABAAAgAQAAAAAAAAAgAAAAAAAAAAAAAAAAAAAAAAAAAAAAAAAAAAAAAA==

> <PUBCHEM_IUPAC_OPENEYE_NAME>
4,5-bis(allylsulfinylmethyl)-1,3,2-dioxathiolane 2,2-dioxide

> <PUBCHEM_IUPAC_CAS_NAME>
4,5-bis(prop-2-enylsulfinylmethyl)-1,3,2-dioxathiolane 2,2-dioxide

> <PUBCHEM_IUPAC_NAME_MARKUP>
4,5-bis(prop-2-enylsulfinylmethyl)-1,3,2-dioxathiolane 2,2-dioxide

> <PUBCHEM_IUPAC_NAME>
4,5-bis(prop-2-enylsulfinylmethyl)-1,3,2-dioxathiolane 2,2-dioxide

> <PUBCHEM_IUPAC_SYSTEMATIC_NAME>
4,5-bis(prop-2-enylsulfinylmethyl)-1,3,2-dioxathiolane 2,2-dioxide

> <PUBCHEM_IUPAC_TRADITIONAL_NAME>
4,5-bis(allylsulfinylmethyl)-1,3,2-dioxathiolane 2,2-dioxide

> <PUBCHEM_IUPAC_INCHI>
InChI=1S/C10H16O6S3/c1-3-5-17(11)7-9-10(8-18(12)6-4-2)16-19(13,14)15-9/h3-4,9-10H,1-2,5-8H2

> <PUBCHEM_IUPAC_INCHIKEY>
QJNOZFPGWQBKCC-UHFFFAOYSA-N

> <PUBCHEM_XLOGP3_AA>
-0.7

> <PUBCHEM_EXACT_MASS>
328.01090175

> <PUBCHEM_MOLECULAR_FORMULA>
C10H16O6S3

> <PUBCHEM_MOLECULAR_WEIGHT>
328.4

> <PUBCHEM_OPENEYE_CAN_SMILES>
C=CCS(=O)CC1C(OS(=O)(=O)O1)CS(=O)CC=C

> <PUBCHEM_OPENEYE_ISO_SMILES>
C=CCS(=O)CC1C(OS(=O)(=O)O1)CS(=O)CC=C

> <PUBCHEM_CACTVS_TPSA>
134

> <PUBCHEM_MONOISOTOPIC_WEIGHT>
328.01090175

> <PUBCHEM_TOTAL_CHARGE>
0

> <PUBCHEM_HEAVY_ATOM_COUNT>
19

> <PUBCHEM_ATOM_DEF_STEREO_COUNT>
0

> <PUBCHEM_ATOM_UDEF_STEREO_COUNT>
4

> <PUBCHEM_BOND_DEF_STEREO_COUNT>
0

> <PUBCHEM_BOND_UDEF_STEREO_COUNT>
0

> <PUBCHEM_ISOTOPIC_ATOM_COUNT>
0

> <PUBCHEM_COMPONENT_COUNT>
1

> <PUBCHEM_CACTVS_TAUTO_COUNT>
-1

> <PUBCHEM_COORDINATE_TYPE>
1
5
255

> <PUBCHEM_BONDANNOTATIONS>
10  12  3
11  13  3
2  14  3
3  15  3

$$$$
