 
  -OEChem-10192104012D

 62 65  0     1  0  0  0  0  0999 V2000
    8.5991   -2.8813    0.0000 O   0  0  0  0  0  0  0  0  0  0  0  0
    6.8671   -4.8813    0.0000 O   0  0  0  0  0  0  0  0  0  0  0  0
    8.5991   -5.8813    0.0000 O   0  0  0  0  0  0  0  0  0  0  0  0
   10.3312   -2.8813    0.0000 O   0  0  0  0  0  0  0  0  0  0  0  0
   10.3312   -4.8813    0.0000 O   0  0  0  0  0  0  0  0  0  0  0  0
    6.0010   -3.3813    0.0000 O   0  0  0  0  0  0  0  0  0  0  0  0
    5.1350   -1.8813    0.0000 O   0  0  0  0  0  0  0  0  0  0  0  0
    9.4651    2.6187    0.0000 O   0  0  0  0  0  0  0  0  0  0  0  0
   12.0632    1.1187    0.0000 O   0  0  0  0  0  0  0  0  0  0  0  0
   12.9674    2.6156    0.0000 O   0  0  0  0  0  0  0  0  0  0  0  0
    2.5369   -3.3813    0.0000 O   0  0  0  0  0  0  0  0  0  0  0  0
   11.2093    5.6880    0.0000 O   0  0  0  0  0  0  0  0  0  0  0  0
    3.4030   -1.8813    0.0000 O   0  0  0  0  0  0  0  0  0  0  0  0
    7.7331   -4.3813    0.0000 C   0  0  1  0  0  0  0  0  0  0  0  0
    8.5991   -4.8813    0.0000 C   0  0  1  0  0  0  0  0  0  0  0  0
    7.7331   -3.3813    0.0000 C   0  0  1  0  0  0  0  0  0  0  0  0
    9.4651   -4.3813    0.0000 C   0  0  2  0  0  0  0  0  0  0  0  0
    9.4651   -3.3813    0.0000 C   0  0  1  0  0  0  0  0  0  0  0  0
    6.8671   -2.8813    0.0000 C   0  0  0  0  0  0  0  0  0  0  0  0
   10.3312   -1.8813    0.0000 C   0  0  0  0  0  0  0  0  0  0  0  0
   11.1972   -1.3813    0.0000 C   0  0  0  0  0  0  0  0  0  0  0  0
    9.4651   -1.3813    0.0000 C   0  0  0  0  0  0  0  0  0  0  0  0
    5.1350   -2.8813    0.0000 C   0  0  0  0  0  0  0  0  0  0  0  0
   10.3312    0.1187    0.0000 C   0  0  0  0  0  0  0  0  0  0  0  0
   11.1972   -0.3813    0.0000 C   0  0  0  0  0  0  0  0  0  0  0  0
    9.4651   -0.3813    0.0000 C   0  0  0  0  0  0  0  0  0  0  0  0
    4.2690   -3.3813    0.0000 C   0  0  0  0  0  0  0  0  0  0  0  0
   10.3312    1.1187    0.0000 C   0  0  0  0  0  0  0  0  0  0  0  0
   11.1972    1.6187    0.0000 C   0  0  0  0  0  0  0  0  0  0  0  0
   11.1972    2.6187    0.0000 C   0  0  0  0  0  0  0  0  0  0  0  0
    9.4651    1.6187    0.0000 C   0  0  0  0  0  0  0  0  0  0  0  0
   10.3312    3.1187    0.0000 C   0  0  0  0  0  0  0  0  0  0  0  0
    3.4030   -2.8813    0.0000 C   0  0  0  0  0  0  0  0  0  0  0  0
   12.1072    3.1256    0.0000 C   0  0  0  0  0  0  0  0  0  0  0  0
   10.3151    4.1602    0.0000 C   0  0  0  0  0  0  0  0  0  0  0  0
   11.2131    4.6880    0.0000 C   0  0  0  0  0  0  0  0  0  0  0  0
   12.1152    4.1672    0.0000 C   0  0  0  0  0  0  0  0  0  0  0  0
   12.0734    6.1913    0.0000 C   0  0  0  0  0  0  0  0  0  0  0  0
    7.7331   -5.0013    0.0000 H   0  0  0  0  0  0  0  0  0  0  0  0
    9.1360   -5.1913    0.0000 H   0  0  0  0  0  0  0  0  0  0  0  0
    7.7331   -2.7613    0.0000 H   0  0  0  0  0  0  0  0  0  0  0  0
    9.4651   -5.0013    0.0000 H   0  0  0  0  0  0  0  0  0  0  0  0
   10.0021   -3.6913    0.0000 H   0  0  0  0  0  0  0  0  0  0  0  0
    7.2656   -2.4064    0.0000 H   0  0  0  0  0  0  0  0  0  0  0  0
    6.4685   -2.4064    0.0000 H   0  0  0  0  0  0  0  0  0  0  0  0
    6.8671   -5.5013    0.0000 H   0  0  0  0  0  0  0  0  0  0  0  0
    9.1360   -6.1913    0.0000 H   0  0  0  0  0  0  0  0  0  0  0  0
   10.8681   -4.5713    0.0000 H   0  0  0  0  0  0  0  0  0  0  0  0
   11.7341   -1.6913    0.0000 H   0  0  0  0  0  0  0  0  0  0  0  0
    8.9282   -1.6913    0.0000 H   0  0  0  0  0  0  0  0  0  0  0  0
   11.7341   -0.0713    0.0000 H   0  0  0  0  0  0  0  0  0  0  0  0
    8.9282   -0.0713    0.0000 H   0  0  0  0  0  0  0  0  0  0  0  0
    3.8705   -3.8562    0.0000 H   0  0  0  0  0  0  0  0  0  0  0  0
    4.6675   -3.8562    0.0000 H   0  0  0  0  0  0  0  0  0  0  0  0
    8.9282    1.3087    0.0000 H   0  0  0  0  0  0  0  0  0  0  0  0
    9.7746    4.4640    0.0000 H   0  0  0  0  0  0  0  0  0  0  0  0
   12.6533    4.4751    0.0000 H   0  0  0  0  0  0  0  0  0  0  0  0
   13.5079    2.9193    0.0000 H   0  0  0  0  0  0  0  0  0  0  0  0
    2.0000   -3.0713    0.0000 H   0  0  0  0  0  0  0  0  0  0  0  0
   12.3854    5.6556    0.0000 H   0  0  0  0  0  0  0  0  0  0  0  0
   12.6091    6.5034    0.0000 H   0  0  0  0  0  0  0  0  0  0  0  0
   11.7613    6.7270    0.0000 H   0  0  0  0  0  0  0  0  0  0  0  0
  1 16  1  0  0  0  0
  1 18  1  0  0  0  0
 14  2  1  6  0  0  0
  2 46  1  0  0  0  0
 15  3  1  1  0  0  0
  3 47  1  0  0  0  0
 18  4  1  1  0  0  0
  4 20  1  0  0  0  0
 17  5  1  6  0  0  0
  5 48  1  0  0  0  0
  6 19  1  0  0  0  0
  6 23  1  0  0  0  0
  7 23  2  0  0  0  0
  8 31  1  0  0  0  0
  8 32  1  0  0  0  0
  9 29  2  0  0  0  0
 10 34  1  0  0  0  0
 10 58  1  0  0  0  0
 11 33  1  0  0  0  0
 11 59  1  0  0  0  0
 12 36  1  0  0  0  0
 12 38  1  0  0  0  0
 13 33  2  0  0  0  0
 14 15  1  0  0  0  0
 14 16  1  0  0  0  0
 14 39  1  0  0  0  0
 15 17  1  0  0  0  0
 15 40  1  0  0  0  0
 16 19  1  1  0  0  0
 16 41  1  0  0  0  0
 17 18  1  0  0  0  0
 17 42  1  0  0  0  0
 18 43  1  0  0  0  0
 19 44  1  0  0  0  0
 19 45  1  0  0  0  0
 20 21  2  0  0  0  0
 20 22  1  0  0  0  0
 21 25  1  0  0  0  0
 21 49  1  0  0  0  0
 22 26  2  0  0  0  0
 22 50  1  0  0  0  0
 23 27  1  0  0  0  0
 24 25  2  0  0  0  0
 24 26  1  0  0  0  0
 24 28  1  0  0  0  0
 25 51  1  0  0  0  0
 26 52  1  0  0  0  0
 27 33  1  0  0  0  0
 27 53  1  0  0  0  0
 27 54  1  0  0  0  0
 28 29  1  0  0  0  0
 28 31  2  0  0  0  0
 29 30  1  0  0  0  0
 30 32  1  0  0  0  0
 30 34  2  0  0  0  0
 31 55  1  0  0  0  0
 32 35  2  0  0  0  0
 34 37  1  0  0  0  0
 35 36  1  0  0  0  0
 35 56  1  0  0  0  0
 36 37  2  0  0  0  0
 37 57  1  0  0  0  0
 38 60  1  0  0  0  0
 38 61  1  0  0  0  0
 38 62  1  0  0  0  0
M  END
> <PUBCHEM_COMPOUND_CID>
101010453

> <PUBCHEM_COMPOUND_CANONICALIZED>
1

> <PUBCHEM_CACTVS_COMPLEXITY>
898

> <PUBCHEM_CACTVS_HBOND_ACCEPTOR>
13

> <PUBCHEM_CACTVS_HBOND_DONOR>
5

> <PUBCHEM_CACTVS_ROTATABLE_BOND>
9

> <PUBCHEM_CACTVS_SUBSKEYS>
AAADceB4PAAAAAAAAAAAAAAAAAAAAAAAAAA0YIEAAAAAAACBQAAAGgAACAAADBSwmAMyDoAABgCIAqDSCAACCAAkIAAIiAEGCMgdNzaONRqieWCl4BUPuYfI7PzOIAAACAAIAABAAAAQABAAAAAAAAAAAA==

> <PUBCHEM_IUPAC_OPENEYE_NAME>
3-oxo-3-[[(2R,3S,4S,5R,6S)-3,4,5-trihydroxy-6-[4-(5-hydroxy-7-methoxy-4-oxo-chromen-3-yl)phenoxy]tetrahydropyran-2-yl]methoxy]propanoic acid

> <PUBCHEM_IUPAC_CAS_NAME>
3-oxo-3-[[(2R,3S,4S,5R,6S)-3,4,5-trihydroxy-6-[4-(5-hydroxy-7-methoxy-4-oxo-1-benzopyran-3-yl)phenoxy]-2-oxanyl]methoxy]propanoic acid

> <PUBCHEM_IUPAC_NAME_MARKUP>
3-oxo-3-[[(2<I>R</I>,3<I>S</I>,4<I>S</I>,5<I>R</I>,6<I>S</I>)-3,4,5-trihydroxy-6-[4-(5-hydroxy-7-methoxy-4-oxochromen-3-yl)phenoxy]oxan-2-yl]methoxy]propanoic acid

> <PUBCHEM_IUPAC_NAME>
3-oxo-3-[[(2R,3S,4S,5R,6S)-3,4,5-trihydroxy-6-[4-(5-hydroxy-7-methoxy-4-oxochromen-3-yl)phenoxy]oxan-2-yl]methoxy]propanoic acid

> <PUBCHEM_IUPAC_SYSTEMATIC_NAME>
3-[[(2R,3S,4S,5R,6S)-6-[4-(7-methoxy-5-oxidanyl-4-oxidanylidene-chromen-3-yl)phenoxy]-3,4,5-tris(oxidanyl)oxan-2-yl]methoxy]-3-oxidanylidene-propanoic acid

> <PUBCHEM_IUPAC_TRADITIONAL_NAME>
3-keto-3-[[(2R,3S,4S,5R,6S)-3,4,5-trihydroxy-6-[4-(5-hydroxy-4-keto-7-methoxy-chromen-3-yl)phenoxy]tetrahydropyran-2-yl]methoxy]propionic acid

> <PUBCHEM_IUPAC_INCHI>
InChI=1S/C25H24O13/c1-34-13-6-15(26)20-16(7-13)35-9-14(21(20)30)11-2-4-12(5-3-11)37-25-24(33)23(32)22(31)17(38-25)10-36-19(29)8-18(27)28/h2-7,9,17,22-26,31-33H,8,10H2,1H3,(H,27,28)/t17-,22-,23+,24-,25-/m1/s1

> <PUBCHEM_IUPAC_INCHIKEY>
RSPQQLVFSYOSOU-RBZNUJCTSA-N

> <PUBCHEM_XLOGP3_AA>
0.9

> <PUBCHEM_EXACT_MASS>
532.12169082

> <PUBCHEM_MOLECULAR_FORMULA>
C25H24O13

> <PUBCHEM_MOLECULAR_WEIGHT>
532.4

> <PUBCHEM_OPENEYE_CAN_SMILES>
COC1=CC(=C2C(=C1)OC=C(C2=O)C3=CC=C(C=C3)OC4C(C(C(C(O4)COC(=O)CC(=O)O)O)O)O)O

> <PUBCHEM_OPENEYE_ISO_SMILES>
COC1=CC(=C2C(=C1)OC=C(C2=O)C3=CC=C(C=C3)O[C@H]4[C@@H]([C@H]([C@@H]([C@H](O4)COC(=O)CC(=O)O)O)O)O)O

> <PUBCHEM_CACTVS_TPSA>
199

> <PUBCHEM_MONOISOTOPIC_WEIGHT>
532.12169082

> <PUBCHEM_TOTAL_CHARGE>
0

> <PUBCHEM_HEAVY_ATOM_COUNT>
38

> <PUBCHEM_ATOM_DEF_STEREO_COUNT>
5

> <PUBCHEM_ATOM_UDEF_STEREO_COUNT>
0

> <PUBCHEM_BOND_DEF_STEREO_COUNT>
0

> <PUBCHEM_BOND_UDEF_STEREO_COUNT>
0

> <PUBCHEM_ISOTOPIC_ATOM_COUNT>
0

> <PUBCHEM_COMPONENT_COUNT>
1

> <PUBCHEM_CACTVS_TAUTO_COUNT>
-1

> <PUBCHEM_COORDINATE_TYPE>
1
5
255

> <PUBCHEM_BONDANNOTATIONS>
16  19  5
14  2  6
20  21  8
20  22  8
21  25  8
22  26  8
24  25  8
24  26  8
28  29  8
28  31  8
29  30  8
15  3  5
30  32  8
30  34  8
32  35  8
34  37  8
35  36  8
36  37  8
18  4  5
17  5  6
8  31  8
8  32  8

$$$$
