 
  -OEChem-10192103362D

 82 84  0     0  0  0  0  0  0999 V2000
    4.5981    6.7500    0.0000 O   0  0  0  0  0  0  0  0  0  0  0  0
    4.5981   -6.2500    0.0000 O   0  0  0  0  0  0  0  0  0  0  0  0
    7.1962   10.2500    0.0000 O   0  0  0  0  0  0  0  0  0  0  0  0
    7.1962   -9.7500    0.0000 O   0  0  0  0  0  0  0  0  0  0  0  0
    3.7320    2.2500    0.0000 O   0  0  0  0  0  0  0  0  0  0  0  0
    3.7320   -1.7500    0.0000 O   0  0  0  0  0  0  0  0  0  0  0  0
    7.1962  -10.7500    0.0000 O   0  0  0  0  0  0  0  0  0  0  0  0
    5.4641    2.2500    0.0000 O   0  0  0  0  0  0  0  0  0  0  0  0
    5.4641   -1.7500    0.0000 O   0  0  0  0  0  0  0  0  0  0  0  0
    6.3301   11.7500    0.0000 O   0  0  0  0  0  0  0  0  0  0  0  0
    8.9282  -10.7500    0.0000 O   0  0  0  0  0  0  0  0  0  0  0  0
    5.4641    8.2500    0.0000 C   0  0  0  0  0  0  0  0  0  0  0  0
    6.3301    8.7500    0.0000 C   0  0  0  0  0  0  0  0  0  0  0  0
    5.4641   -7.7500    0.0000 C   0  0  0  0  0  0  0  0  0  0  0  0
    6.3301   -8.2500    0.0000 C   0  0  0  0  0  0  0  0  0  0  0  0
    5.4641    7.2500    0.0000 C   0  0  0  0  0  0  0  0  0  0  0  0
    5.4641   -6.7500    0.0000 C   0  0  0  0  0  0  0  0  0  0  0  0
    6.3301    9.7500    0.0000 C   0  0  0  0  0  0  0  0  0  0  0  0
    6.3301   -9.2500    0.0000 C   0  0  0  0  0  0  0  0  0  0  0  0
    4.5981    5.7500    0.0000 C   0  0  0  0  0  0  0  0  0  0  0  0
    4.5981   -5.2500    0.0000 C   0  0  0  0  0  0  0  0  0  0  0  0
    4.5981    3.7500    0.0000 C   0  0  0  0  0  0  0  0  0  0  0  0
    3.7320    5.2500    0.0000 C   0  0  0  0  0  0  0  0  0  0  0  0
    5.4641    5.2500    0.0000 C   0  0  0  0  0  0  0  0  0  0  0  0
    4.5981   -3.2500    0.0000 C   0  0  0  0  0  0  0  0  0  0  0  0
    2.8660    0.7500    0.0000 C   0  0  0  0  0  0  0  0  0  0  0  0
    5.4641   -4.7500    0.0000 C   0  0  0  0  0  0  0  0  0  0  0  0
    3.7320   -4.7500    0.0000 C   0  0  0  0  0  0  0  0  0  0  0  0
    3.7320    1.2500    0.0000 C   0  0  0  0  0  0  0  0  0  0  0  0
    3.7320    4.2500    0.0000 C   0  0  0  0  0  0  0  0  0  0  0  0
    5.4641    4.2500    0.0000 C   0  0  0  0  0  0  0  0  0  0  0  0
    5.4641   -3.7500    0.0000 C   0  0  0  0  0  0  0  0  0  0  0  0
    3.7320   -3.7500    0.0000 C   0  0  0  0  0  0  0  0  0  0  0  0
    3.7320   -0.7500    0.0000 C   0  0  0  0  0  0  0  0  0  0  0  0
    2.8660   -0.2500    0.0000 C   0  0  0  0  0  0  0  0  0  0  0  0
    4.5981    0.7500    0.0000 C   0  0  0  0  0  0  0  0  0  0  0  0
    4.5981    2.7500    0.0000 C   0  0  0  0  0  0  0  0  0  0  0  0
    4.5981   -0.2500    0.0000 C   0  0  0  0  0  0  0  0  0  0  0  0
    4.5981   -2.2500    0.0000 C   0  0  0  0  0  0  0  0  0  0  0  0
    2.0000    1.2500    0.0000 C   0  0  0  0  0  0  0  0  0  0  0  0
    7.1962   11.2500    0.0000 C   0  0  0  0  0  0  0  0  0  0  0  0
    8.0622   11.7500    0.0000 C   0  0  0  0  0  0  0  0  0  0  0  0
    8.0622  -11.2500    0.0000 C   0  0  0  0  0  0  0  0  0  0  0  0
    8.0622   12.7500    0.0000 C   0  0  0  0  0  0  0  0  0  0  0  0
    8.0622  -12.2500    0.0000 C   0  0  0  0  0  0  0  0  0  0  0  0
    8.9282  -12.7500    0.0000 C   0  0  0  0  0  0  0  0  0  0  0  0
    5.2520    8.8326    0.0000 H   0  0  0  0  0  0  0  0  0  0  0  0
    4.8535    8.1423    0.0000 H   0  0  0  0  0  0  0  0  0  0  0  0
    6.5422    8.1674    0.0000 H   0  0  0  0  0  0  0  0  0  0  0  0
    6.9407    8.8577    0.0000 H   0  0  0  0  0  0  0  0  0  0  0  0
    4.8535   -7.6423    0.0000 H   0  0  0  0  0  0  0  0  0  0  0  0
    5.2520   -8.3326    0.0000 H   0  0  0  0  0  0  0  0  0  0  0  0
    6.9407   -8.3577    0.0000 H   0  0  0  0  0  0  0  0  0  0  0  0
    6.5422   -7.6674    0.0000 H   0  0  0  0  0  0  0  0  0  0  0  0
    5.6762    6.6674    0.0000 H   0  0  0  0  0  0  0  0  0  0  0  0
    6.0747    7.3577    0.0000 H   0  0  0  0  0  0  0  0  0  0  0  0
    6.0747   -6.8577    0.0000 H   0  0  0  0  0  0  0  0  0  0  0  0
    5.6762   -6.1674    0.0000 H   0  0  0  0  0  0  0  0  0  0  0  0
    6.1181   10.3326    0.0000 H   0  0  0  0  0  0  0  0  0  0  0  0
    5.7196    9.6423    0.0000 H   0  0  0  0  0  0  0  0  0  0  0  0
    5.7196   -9.1423    0.0000 H   0  0  0  0  0  0  0  0  0  0  0  0
    6.1181   -9.8326    0.0000 H   0  0  0  0  0  0  0  0  0  0  0  0
    3.1951    5.5600    0.0000 H   0  0  0  0  0  0  0  0  0  0  0  0
    6.0010    5.5600    0.0000 H   0  0  0  0  0  0  0  0  0  0  0  0
    6.0010   -5.0600    0.0000 H   0  0  0  0  0  0  0  0  0  0  0  0
    3.1951   -5.0600    0.0000 H   0  0  0  0  0  0  0  0  0  0  0  0
    3.1951    3.9400    0.0000 H   0  0  0  0  0  0  0  0  0  0  0  0
    6.0010    3.9400    0.0000 H   0  0  0  0  0  0  0  0  0  0  0  0
    6.0010   -3.4400    0.0000 H   0  0  0  0  0  0  0  0  0  0  0  0
    3.1951   -3.4400    0.0000 H   0  0  0  0  0  0  0  0  0  0  0  0
    2.3291   -0.5600    0.0000 H   0  0  0  0  0  0  0  0  0  0  0  0
    5.1350    1.0600    0.0000 H   0  0  0  0  0  0  0  0  0  0  0  0
    5.1350   -0.5600    0.0000 H   0  0  0  0  0  0  0  0  0  0  0  0
    2.3100    1.7869    0.0000 H   0  0  0  0  0  0  0  0  0  0  0  0
    1.4631    1.5600    0.0000 H   0  0  0  0  0  0  0  0  0  0  0  0
    1.6900    0.7131    0.0000 H   0  0  0  0  0  0  0  0  0  0  0  0
    8.5991   11.4400    0.0000 H   0  0  0  0  0  0  0  0  0  0  0  0
    8.5991   13.0600    0.0000 H   0  0  0  0  0  0  0  0  0  0  0  0
    7.5252   13.0600    0.0000 H   0  0  0  0  0  0  0  0  0  0  0  0
    7.5252  -12.5600    0.0000 H   0  0  0  0  0  0  0  0  0  0  0  0
    8.9282  -13.3700    0.0000 H   0  0  0  0  0  0  0  0  0  0  0  0
    9.4651  -12.4400    0.0000 H   0  0  0  0  0  0  0  0  0  0  0  0
  1 16  1  0  0  0  0
  1 20  1  0  0  0  0
  2 17  1  0  0  0  0
  2 21  1  0  0  0  0
  3 18  1  0  0  0  0
  3 41  1  0  0  0  0
  4  7  1  0  0  0  0
  4 19  1  0  0  0  0
  5 29  1  0  0  0  0
  5 37  1  0  0  0  0
  6 34  1  0  0  0  0
  6 39  1  0  0  0  0
  7 43  1  0  0  0  0
  8 37  2  0  0  0  0
  9 39  2  0  0  0  0
 10 41  2  0  0  0  0
 11 43  2  0  0  0  0
 12 13  1  0  0  0  0
 12 16  1  0  0  0  0
 12 47  1  0  0  0  0
 12 48  1  0  0  0  0
 13 18  1  0  0  0  0
 13 49  1  0  0  0  0
 13 50  1  0  0  0  0
 14 15  1  0  0  0  0
 14 17  1  0  0  0  0
 14 51  1  0  0  0  0
 14 52  1  0  0  0  0
 15 19  1  0  0  0  0
 15 53  1  0  0  0  0
 15 54  1  0  0  0  0
 16 55  1  0  0  0  0
 16 56  1  0  0  0  0
 17 57  1  0  0  0  0
 17 58  1  0  0  0  0
 18 59  1  0  0  0  0
 18 60  1  0  0  0  0
 19 61  1  0  0  0  0
 19 62  1  0  0  0  0
 20 23  2  0  0  0  0
 20 24  1  0  0  0  0
 21 27  2  0  0  0  0
 21 28  1  0  0  0  0
 22 30  2  0  0  0  0
 22 31  1  0  0  0  0
 22 37  1  0  0  0  0
 23 30  1  0  0  0  0
 23 63  1  0  0  0  0
 24 31  2  0  0  0  0
 24 64  1  0  0  0  0
 25 32  2  0  0  0  0
 25 33  1  0  0  0  0
 25 39  1  0  0  0  0
 26 29  2  0  0  0  0
 26 35  1  0  0  0  0
 26 40  1  0  0  0  0
 27 32  1  0  0  0  0
 27 65  1  0  0  0  0
 28 33  2  0  0  0  0
 28 66  1  0  0  0  0
 29 36  1  0  0  0  0
 30 67  1  0  0  0  0
 31 68  1  0  0  0  0
 32 69  1  0  0  0  0
 33 70  1  0  0  0  0
 34 35  2  0  0  0  0
 34 38  1  0  0  0  0
 35 71  1  0  0  0  0
 36 38  2  0  0  0  0
 36 72  1  0  0  0  0
 38 73  1  0  0  0  0
 40 74  1  0  0  0  0
 40 75  1  0  0  0  0
 40 76  1  0  0  0  0
 41 42  1  0  0  0  0
 42 44  2  0  0  0  0
 42 77  1  0  0  0  0
 43 45  1  0  0  0  0
 44 78  1  0  0  0  0
 44 79  1  0  0  0  0
 45 46  2  0  0  0  0
 45 80  1  0  0  0  0
 46 81  1  0  0  0  0
 46 82  1  0  0  0  0
M  END
> <PUBCHEM_COMPOUND_CID>
137394835

> <PUBCHEM_COMPOUND_CANONICALIZED>
1

> <PUBCHEM_CACTVS_COMPLEXITY>
966

> <PUBCHEM_CACTVS_HBOND_ACCEPTOR>
11

> <PUBCHEM_CACTVS_HBOND_DONOR>
0

> <PUBCHEM_CACTVS_ROTATABLE_BOND>
23

> <PUBCHEM_CACTVS_SUBSKEYS>
AAADcfB8PAAAAAAAAAAAAAAAAAAAAAAAAAAwYMAAAAAAAAABUAAAGgAABAAADASgmAIyDoAABACIAiDSCAACCAAkIAAIiAEGCMgMJjKENRqCOyCkwBEIqYfI7DzOIQABAAAIAABCAAIAABAAAAAAAAAAAA==

> <PUBCHEM_IUPAC_OPENEYE_NAME>
[3-methyl-4-[4-(4-prop-2-enoyloxybutoxy)benzoyl]oxy-phenyl] 4-(4-prop-2-enoylperoxybutoxy)benzoate

> <PUBCHEM_IUPAC_CAS_NAME>
4-[4-(1-oxoprop-2-enyldioxy)butoxy]benzoic acid [3-methyl-4-[oxo-[4-[4-(1-oxoprop-2-enoxy)butoxy]phenyl]methoxy]phenyl] ester

> <PUBCHEM_IUPAC_NAME_MARKUP>
[3-methyl-4-[4-(4-prop-2-enoyloxybutoxy)benzoyl]oxyphenyl] 4-(4-prop-2-enoylperoxybutoxy)benzoate

> <PUBCHEM_IUPAC_NAME>
[3-methyl-4-[4-(4-prop-2-enoyloxybutoxy)benzoyl]oxyphenyl] 4-(4-prop-2-enoylperoxybutoxy)benzoate

> <PUBCHEM_IUPAC_SYSTEMATIC_NAME>
[3-methyl-4-[4-(4-prop-2-enoyloxybutoxy)phenyl]carbonyloxy-phenyl] 4-(4-prop-2-enoylperoxybutoxy)benzoate

> <PUBCHEM_IUPAC_TRADITIONAL_NAME>
4-(4-acryloylperoxybutoxy)benzoic acid [4-[4-(4-acryloyloxybutoxy)benzoyl]oxy-3-methyl-phenyl] ester

> <PUBCHEM_IUPAC_INCHI>
InChI=1S/C35H36O11/c1-4-32(36)42-22-7-6-20-40-29-16-12-27(13-17-29)35(39)45-31-19-18-30(24-25(31)3)44-34(38)26-10-14-28(15-11-26)41-21-8-9-23-43-46-33(37)5-2/h4-5,10-19,24H,1-2,6-9,20-23H2,3H3

> <PUBCHEM_IUPAC_INCHIKEY>
PXSDMNBZVOYXLX-UHFFFAOYSA-N

> <PUBCHEM_XLOGP3_AA>
7.5

> <PUBCHEM_EXACT_MASS>
632.22576196

> <PUBCHEM_MOLECULAR_FORMULA>
C35H36O11

> <PUBCHEM_MOLECULAR_WEIGHT>
632.7

> <PUBCHEM_OPENEYE_CAN_SMILES>
CC1=C(C=CC(=C1)OC(=O)C2=CC=C(C=C2)OCCCCOOC(=O)C=C)OC(=O)C3=CC=C(C=C3)OCCCCOC(=O)C=C

> <PUBCHEM_OPENEYE_ISO_SMILES>
CC1=C(C=CC(=C1)OC(=O)C2=CC=C(C=C2)OCCCCOOC(=O)C=C)OC(=O)C3=CC=C(C=C3)OCCCCOC(=O)C=C

> <PUBCHEM_CACTVS_TPSA>
133

> <PUBCHEM_MONOISOTOPIC_WEIGHT>
632.22576196

> <PUBCHEM_TOTAL_CHARGE>
0

> <PUBCHEM_HEAVY_ATOM_COUNT>
46

> <PUBCHEM_ATOM_DEF_STEREO_COUNT>
0

> <PUBCHEM_ATOM_UDEF_STEREO_COUNT>
0

> <PUBCHEM_BOND_DEF_STEREO_COUNT>
0

> <PUBCHEM_BOND_UDEF_STEREO_COUNT>
0

> <PUBCHEM_ISOTOPIC_ATOM_COUNT>
0

> <PUBCHEM_COMPONENT_COUNT>
1

> <PUBCHEM_CACTVS_TAUTO_COUNT>
-1

> <PUBCHEM_COORDINATE_TYPE>
1
5
255

> <PUBCHEM_BONDANNOTATIONS>
20  23  8
20  24  8
21  27  8
21  28  8
22  30  8
22  31  8
23  30  8
24  31  8
25  32  8
25  33  8
26  29  8
26  35  8
27  32  8
28  33  8
29  36  8
34  35  8
34  38  8
36  38  8

$$$$
