 
  -OEChem-10192103392D

 29 29  0     0  0  0  0  0  0999 V2000
    2.8660    0.4050    0.0000 O   0  0  0  0  0  0  0  0  0  0  0  0
    4.5981   -2.5950    0.0000 O   0  0  0  0  0  0  0  0  0  0  0  0
    5.4641    1.9050    0.0000 O   0  0  0  0  0  0  0  0  0  0  0  0
    7.1962   -1.0950    0.0000 O   0  0  0  0  0  0  0  0  0  0  0  0
    3.7320    1.9050    0.0000 O   0  0  0  0  0  0  0  0  0  0  0  0
    6.3301   -2.5950    0.0000 O   0  0  0  0  0  0  0  0  0  0  0  0
    4.5981    0.4050    0.0000 C   0  0  0  0  0  0  0  0  0  0  0  0
    5.4641   -1.0950    0.0000 C   0  0  0  0  0  0  0  0  0  0  0  0
    3.7320   -0.0950    0.0000 C   0  0  0  0  0  0  0  0  0  0  0  0
    5.4641   -0.0950    0.0000 C   0  0  0  0  0  0  0  0  0  0  0  0
    4.5981   -1.5950    0.0000 C   0  0  0  0  0  0  0  0  0  0  0  0
    3.7320   -1.0950    0.0000 C   0  0  0  0  0  0  0  0  0  0  0  0
    4.5981    1.4050    0.0000 C   0  0  0  0  0  0  0  0  0  0  0  0
    6.3301   -1.5950    0.0000 C   0  0  0  0  0  0  0  0  0  0  0  0
    2.0000   -0.0950    0.0000 C   0  0  0  0  0  0  0  0  0  0  0  0
    5.4641    2.9050    0.0000 C   0  0  0  0  0  0  0  0  0  0  0  0
    8.0622   -1.5950    0.0000 C   0  0  0  0  0  0  0  0  0  0  0  0
    6.0010    0.2150    0.0000 H   0  0  0  0  0  0  0  0  0  0  0  0
    3.1951   -1.4050    0.0000 H   0  0  0  0  0  0  0  0  0  0  0  0
    4.0611   -2.9050    0.0000 H   0  0  0  0  0  0  0  0  0  0  0  0
    1.6900    0.4419    0.0000 H   0  0  0  0  0  0  0  0  0  0  0  0
    1.4631   -0.4050    0.0000 H   0  0  0  0  0  0  0  0  0  0  0  0
    2.3100   -0.6319    0.0000 H   0  0  0  0  0  0  0  0  0  0  0  0
    6.0841    2.9050    0.0000 H   0  0  0  0  0  0  0  0  0  0  0  0
    5.4641    3.5250    0.0000 H   0  0  0  0  0  0  0  0  0  0  0  0
    4.8441    2.9050    0.0000 H   0  0  0  0  0  0  0  0  0  0  0  0
    7.7522   -2.1319    0.0000 H   0  0  0  0  0  0  0  0  0  0  0  0
    8.5991   -1.9050    0.0000 H   0  0  0  0  0  0  0  0  0  0  0  0
    8.3722   -1.0581    0.0000 H   0  0  0  0  0  0  0  0  0  0  0  0
  1  9  1  0  0  0  0
  1 15  1  0  0  0  0
  2 11  1  0  0  0  0
  2 20  1  0  0  0  0
  3 13  1  0  0  0  0
  3 16  1  0  0  0  0
  4 14  1  0  0  0  0
  4 17  1  0  0  0  0
  5 13  2  0  0  0  0
  6 14  2  0  0  0  0
  7  9  2  0  0  0  0
  7 10  1  0  0  0  0
  7 13  1  0  0  0  0
  8 10  2  0  0  0  0
  8 11  1  0  0  0  0
  8 14  1  0  0  0  0
  9 12  1  0  0  0  0
 10 18  1  0  0  0  0
 11 12  2  0  0  0  0
 12 19  1  0  0  0  0
 15 21  1  0  0  0  0
 15 22  1  0  0  0  0
 15 23  1  0  0  0  0
 16 24  1  0  0  0  0
 16 25  1  0  0  0  0
 16 26  1  0  0  0  0
 17 27  1  0  0  0  0
 17 28  1  0  0  0  0
 17 29  1  0  0  0  0
M  END
> <PUBCHEM_COMPOUND_CID>
117064155

> <PUBCHEM_COMPOUND_CANONICALIZED>
1

> <PUBCHEM_CACTVS_COMPLEXITY>
290

> <PUBCHEM_CACTVS_HBOND_ACCEPTOR>
6

> <PUBCHEM_CACTVS_HBOND_DONOR>
1

> <PUBCHEM_CACTVS_ROTATABLE_BOND>
5

> <PUBCHEM_CACTVS_SUBSKEYS>
AAADccBwOAAAAAAAAAAAAAAAAAAAAAAAAAAwAAAAAAAAAAABAAAAGgAACAAADASAmAIyDoAABgCIAiDSCAACCAAkIAAAiAEGCMgMJzaGNBqAcWAl4BUIuYeI7mzOIAACCAAIAABAAAQQABAAAAAAAAAAAA==

> <PUBCHEM_IUPAC_OPENEYE_NAME>
dimethyl 4-hydroxy-6-methoxy-benzene-1,3-dicarboxylate

> <PUBCHEM_IUPAC_CAS_NAME>
4-hydroxy-6-methoxybenzene-1,3-dicarboxylic acid dimethyl ester

> <PUBCHEM_IUPAC_NAME_MARKUP>
dimethyl 4-hydroxy-6-methoxybenzene-1,3-dicarboxylate

> <PUBCHEM_IUPAC_NAME>
dimethyl 4-hydroxy-6-methoxybenzene-1,3-dicarboxylate

> <PUBCHEM_IUPAC_SYSTEMATIC_NAME>
dimethyl 4-methoxy-6-oxidanyl-benzene-1,3-dicarboxylate

> <PUBCHEM_IUPAC_TRADITIONAL_NAME>
4-hydroxy-6-methoxy-benzene-1,3-dicarboxylic acid dimethyl ester

> <PUBCHEM_IUPAC_INCHI>
InChI=1S/C11H12O6/c1-15-9-5-8(12)6(10(13)16-2)4-7(9)11(14)17-3/h4-5,12H,1-3H3

> <PUBCHEM_IUPAC_INCHIKEY>
XAAPNCWAFKLBRD-UHFFFAOYSA-N

> <PUBCHEM_XLOGP3_AA>
1.8

> <PUBCHEM_EXACT_MASS>
240.06338810

> <PUBCHEM_MOLECULAR_FORMULA>
C11H12O6

> <PUBCHEM_MOLECULAR_WEIGHT>
240.21

> <PUBCHEM_OPENEYE_CAN_SMILES>
COC1=C(C=C(C(=C1)O)C(=O)OC)C(=O)OC

> <PUBCHEM_OPENEYE_ISO_SMILES>
COC1=C(C=C(C(=C1)O)C(=O)OC)C(=O)OC

> <PUBCHEM_CACTVS_TPSA>
82.1

> <PUBCHEM_MONOISOTOPIC_WEIGHT>
240.06338810

> <PUBCHEM_TOTAL_CHARGE>
0

> <PUBCHEM_HEAVY_ATOM_COUNT>
17

> <PUBCHEM_ATOM_DEF_STEREO_COUNT>
0

> <PUBCHEM_ATOM_UDEF_STEREO_COUNT>
0

> <PUBCHEM_BOND_DEF_STEREO_COUNT>
0

> <PUBCHEM_BOND_UDEF_STEREO_COUNT>
0

> <PUBCHEM_ISOTOPIC_ATOM_COUNT>
0

> <PUBCHEM_COMPONENT_COUNT>
1

> <PUBCHEM_CACTVS_TAUTO_COUNT>
-1

> <PUBCHEM_COORDINATE_TYPE>
1
5
255

> <PUBCHEM_BONDANNOTATIONS>
11  12  8
7  10  8
7  9  8
8  10  8
8  11  8
9  12  8

$$$$
