 
  -OEChem-10192104002D

 42 43  0     1  0  0  0  0  0999 V2000
    8.3532    0.5753    0.0000 S   0  0  0  0  0  0  0  0  0  0  0  0
    6.2177    2.0667    0.0000 O   0  0  0  0  0  0  0  0  0  0  0  0
    5.5094   -1.7469    0.0000 O   0  0  0  0  0  0  0  0  0  0  0  0
    3.7057   -0.5303    0.0000 O   0  0  0  0  0  0  0  0  0  0  0  0
    4.3054    1.5610    0.0000 O   0  0  0  0  0  0  0  0  0  0  0  0
    8.5944   -1.2567    0.0000 O   0  0  0  0  0  0  0  0  0  0  0  0
    3.7784   -1.8073    0.0000 O   0  0  0  0  0  0  0  0  0  0  0  0
    3.1133    1.0973    0.0000 O   0  0  0  0  0  0  0  0  0  0  0  0
    5.6703    2.6273    0.0000 O   0  0  0  0  0  0  0  0  0  0  0  0
   10.0944   -0.3906    0.0000 O   0  0  0  0  0  0  0  0  0  0  0  0
    6.6955    0.1182    0.0000 C   0  0  1  0  0  0  0  0  0  0  0  0
    5.4745   -0.7475    0.0000 C   0  0  2  0  0  0  0  0  0  0  0  0
    4.6454   -0.1883    0.0000 C   0  0  1  0  0  0  0  0  0  0  0  0
    4.9211    0.7730    0.0000 C   0  0  2  0  0  0  0  0  0  0  0  0
    6.9543    1.0841    0.0000 C   0  0  2  0  0  0  0  0  0  0  0  0
    8.0944   -0.3906    0.0000 C   0  0  1  0  0  0  0  0  0  0  0  0
    4.6613   -2.2768    0.0000 C   0  0  0  0  0  0  0  0  0  0  0  0
    2.9397    0.1125    0.0000 C   0  0  0  0  0  0  0  0  0  0  0  0
    4.6800    2.4882    0.0000 C   0  0  0  0  0  0  0  0  0  0  0  0
    9.5944   -1.2567    0.0000 C   0  0  0  0  0  0  0  0  0  0  0  0
    4.6962   -3.2762    0.0000 C   0  0  0  0  0  0  0  0  0  0  0  0
    2.0000   -0.2295    0.0000 C   0  0  0  0  0  0  0  0  0  0  0  0
    4.0644    3.2762    0.0000 C   0  0  0  0  0  0  0  0  0  0  0  0
   10.0944   -2.1227    0.0000 C   0  0  0  0  0  0  0  0  0  0  0  0
    6.4755   -0.7029    0.0000 H   0  0  0  0  0  0  0  0  0  0  0  0
    4.9322   -1.0481    0.0000 H   0  0  0  0  0  0  0  0  0  0  0  0
    4.1920    0.2346    0.0000 H   0  0  0  0  0  0  0  0  0  0  0  0
    4.3125    0.6547    0.0000 H   0  0  0  0  0  0  0  0  0  0  0  0
    7.1743    1.9051    0.0000 H   0  0  0  0  0  0  0  0  0  0  0  0
    7.6960   -0.8656    0.0000 H   0  0  0  0  0  0  0  0  0  0  0  0
    4.0766   -3.2978    0.0000 H   0  0  0  0  0  0  0  0  0  0  0  0
    4.7179   -3.8958    0.0000 H   0  0  0  0  0  0  0  0  0  0  0  0
    5.3158   -3.2545    0.0000 H   0  0  0  0  0  0  0  0  0  0  0  0
    1.7880    0.3531    0.0000 H   0  0  0  0  0  0  0  0  0  0  0  0
    1.4174   -0.4416    0.0000 H   0  0  0  0  0  0  0  0  0  0  0  0
    2.2120   -0.8121    0.0000 H   0  0  0  0  0  0  0  0  0  0  0  0
    4.5529    3.6579    0.0000 H   0  0  0  0  0  0  0  0  0  0  0  0
    3.6826    3.7648    0.0000 H   0  0  0  0  0  0  0  0  0  0  0  0
    3.5758    2.8945    0.0000 H   0  0  0  0  0  0  0  0  0  0  0  0
    9.5575   -2.4327    0.0000 H   0  0  0  0  0  0  0  0  0  0  0  0
   10.4044   -2.6596    0.0000 H   0  0  0  0  0  0  0  0  0  0  0  0
   10.6314   -1.8127    0.0000 H   0  0  0  0  0  0  0  0  0  0  0  0
  1 15  1  0  0  0  0
  1 16  1  0  0  0  0
  2 11  1  0  0  0  0
  2 15  1  0  0  0  0
 12  3  1  1  0  0  0
  3 17  1  0  0  0  0
 13  4  1  6  0  0  0
  4 18  1  0  0  0  0
 14  5  1  1  0  0  0
  5 19  1  0  0  0  0
 16  6  1  1  0  0  0
  6 20  1  0  0  0  0
  7 17  2  0  0  0  0
  8 18  2  0  0  0  0
  9 19  2  0  0  0  0
 10 20  2  0  0  0  0
 11 12  1  0  0  0  0
 11 16  1  0  0  0  0
 11 25  1  1  0  0  0
 12 13  1  0  0  0  0
 12 26  1  0  0  0  0
 13 14  1  0  0  0  0
 13 27  1  0  0  0  0
 14 15  1  0  0  0  0
 14 28  1  0  0  0  0
 15 29  1  6  0  0  0
 16 30  1  0  0  0  0
 17 21  1  0  0  0  0
 18 22  1  0  0  0  0
 19 23  1  0  0  0  0
 20 24  1  0  0  0  0
 21 31  1  0  0  0  0
 21 32  1  0  0  0  0
 21 33  1  0  0  0  0
 22 34  1  0  0  0  0
 22 35  1  0  0  0  0
 22 36  1  0  0  0  0
 23 37  1  0  0  0  0
 23 38  1  0  0  0  0
 23 39  1  0  0  0  0
 24 40  1  0  0  0  0
 24 41  1  0  0  0  0
 24 42  1  0  0  0  0
M  END
> <PUBCHEM_COMPOUND_CID>
101063862

> <PUBCHEM_COMPOUND_CANONICALIZED>
1

> <PUBCHEM_CACTVS_COMPLEXITY>
548

> <PUBCHEM_CACTVS_HBOND_ACCEPTOR>
10

> <PUBCHEM_CACTVS_HBOND_DONOR>
0

> <PUBCHEM_CACTVS_ROTATABLE_BOND>
8

> <PUBCHEM_CACTVS_SUBSKEYS>
AAADceBwPABAAAAAAAAAAAAAAAAAASAAAAAkAAAABIAAAAAAAAAAGgQAAAAACBSkwAKCCAAABAgIAACQCAAAAAAAABAAAAAAAAABAAIgAAACAAAFAAAiAAHAYAwAAAAAAAAAAAAAAAAAAAAAAAAAAAAAAA==

> <PUBCHEM_IUPAC_OPENEYE_NAME>
[(1S,2S,3S,4R,5S,7R)-3,4,7-triacetoxy-8-oxa-6-thiabicyclo[3.2.1]octan-2-yl] acetate

> <PUBCHEM_IUPAC_CAS_NAME>
acetic acid [(1S,2S,3S,4R,5S,7R)-3,4,7-triacetyloxy-8-oxa-6-thiabicyclo[3.2.1]octan-2-yl] ester

> <PUBCHEM_IUPAC_NAME_MARKUP>
[(1<I>S</I>,2<I>S</I>,3<I>S</I>,4<I>R</I>,5<I>S</I>,7<I>R</I>)-3,4,7-triacetyloxy-8-oxa-6-thiabicyclo[3.2.1]octan-2-yl] acetate

> <PUBCHEM_IUPAC_NAME>
[(1S,2S,3S,4R,5S,7R)-3,4,7-triacetyloxy-8-oxa-6-thiabicyclo[3.2.1]octan-2-yl] acetate

> <PUBCHEM_IUPAC_SYSTEMATIC_NAME>
[(1S,2S,3S,4R,5S,7R)-3,4,7-triacetyloxy-8-oxa-6-thiabicyclo[3.2.1]octan-2-yl] ethanoate

> <PUBCHEM_IUPAC_TRADITIONAL_NAME>
acetic acid [(1S,2S,3S,4R,5S,7R)-3,4,7-triacetoxy-8-oxa-6-thiabicyclo[3.2.1]octan-2-yl] ester

> <PUBCHEM_IUPAC_INCHI>
InChI=1S/C14H18O9S/c1-5(15)19-9-10(20-6(2)16)12-13(22-8(4)18)24-14(23-12)11(9)21-7(3)17/h9-14H,1-4H3/t9-,10-,11+,12-,13+,14-/m0/s1

> <PUBCHEM_IUPAC_INCHIKEY>
LRJZWZWMBLJUQP-VPCRRHSYSA-N

> <PUBCHEM_XLOGP3_AA>
0.4

> <PUBCHEM_EXACT_MASS>
362.06715332

> <PUBCHEM_MOLECULAR_FORMULA>
C14H18O9S

> <PUBCHEM_MOLECULAR_WEIGHT>
362.35

> <PUBCHEM_OPENEYE_CAN_SMILES>
CC(=O)OC1C2C(SC(O2)C(C1OC(=O)C)OC(=O)C)OC(=O)C

> <PUBCHEM_OPENEYE_ISO_SMILES>
CC(=O)O[C@@H]1[C@H]2[C@@H](S[C@H](O2)[C@@H]([C@H]1OC(=O)C)OC(=O)C)OC(=O)C

> <PUBCHEM_CACTVS_TPSA>
140

> <PUBCHEM_MONOISOTOPIC_WEIGHT>
362.06715332

> <PUBCHEM_TOTAL_CHARGE>
0

> <PUBCHEM_HEAVY_ATOM_COUNT>
24

> <PUBCHEM_ATOM_DEF_STEREO_COUNT>
6

> <PUBCHEM_ATOM_UDEF_STEREO_COUNT>
0

> <PUBCHEM_BOND_DEF_STEREO_COUNT>
0

> <PUBCHEM_BOND_UDEF_STEREO_COUNT>
0

> <PUBCHEM_ISOTOPIC_ATOM_COUNT>
0

> <PUBCHEM_COMPONENT_COUNT>
1

> <PUBCHEM_CACTVS_TAUTO_COUNT>
-1

> <PUBCHEM_COORDINATE_TYPE>
1
5
255

> <PUBCHEM_BONDANNOTATIONS>
11  25  5
15  29  6
12  3  5
13  4  6
14  5  5
16  6  5

$$$$
