 
  -OEChem-10192103562D

 26 25  0     1  0  0  0  0  0999 V2000
    5.1350    1.2500    0.0000 O   0  0  0  0  0  0  0  0  0  0  0  0
    8.5991    0.2500    0.0000 O   0  0  0  0  0  0  0  0  0  0  0  0
    4.2690   -1.2500    0.0000 O   0  0  0  0  0  0  0  0  0  0  0  0
    2.5369   -0.2500    0.0000 O   0  0  0  0  0  0  0  0  0  0  0  0
    3.4030    1.2500    0.0000 O   0  0  0  0  0  0  0  0  0  0  0  0
    6.0010   -0.2500    0.0000 C   0  0  0  0  0  0  0  0  0  0  0  0
    5.1350    0.2500    0.0000 C   0  0  3  0  0  0  0  0  0  0  0  0
    6.8671    0.2500    0.0000 C   0  0  0  0  0  0  0  0  0  0  0  0
    7.7331   -0.2500    0.0000 C   0  0  3  0  0  0  0  0  0  0  0  0
    4.2690   -0.2500    0.0000 C   0  0  3  0  0  0  0  0  0  0  0  0
    7.7331   -1.2500    0.0000 C   0  0  0  0  0  0  0  0  0  0  0  0
    3.4030    0.2500    0.0000 C   0  0  0  0  0  0  0  0  0  0  0  0
    5.6025   -0.7249    0.0000 H   0  0  0  0  0  0  0  0  0  0  0  0
    6.3996   -0.7249    0.0000 H   0  0  0  0  0  0  0  0  0  0  0  0
    5.6720    0.5600    0.0000 H   0  0  0  0  0  0  0  0  0  0  0  0
    7.2656    0.7249    0.0000 H   0  0  0  0  0  0  0  0  0  0  0  0
    6.4685    0.7249    0.0000 H   0  0  0  0  0  0  0  0  0  0  0  0
    7.7331    0.3700    0.0000 H   0  0  0  0  0  0  0  0  0  0  0  0
    4.8059   -0.5600    0.0000 H   0  0  0  0  0  0  0  0  0  0  0  0
    7.1131   -1.2500    0.0000 H   0  0  0  0  0  0  0  0  0  0  0  0
    7.7331   -1.8700    0.0000 H   0  0  0  0  0  0  0  0  0  0  0  0
    8.3531   -1.2500    0.0000 H   0  0  0  0  0  0  0  0  0  0  0  0
    5.6720    1.5600    0.0000 H   0  0  0  0  0  0  0  0  0  0  0  0
    9.1360   -0.0600    0.0000 H   0  0  0  0  0  0  0  0  0  0  0  0
    3.7320   -1.5600    0.0000 H   0  0  0  0  0  0  0  0  0  0  0  0
    2.0000    0.0600    0.0000 H   0  0  0  0  0  0  0  0  0  0  0  0
  1  7  1  0  0  0  0
  1 23  1  0  0  0  0
  2  9  1  0  0  0  0
  2 24  1  0  0  0  0
  3 10  1  0  0  0  0
  3 25  1  0  0  0  0
  4 12  1  0  0  0  0
  4 26  1  0  0  0  0
  5 12  2  0  0  0  0
  6  7  1  0  0  0  0
  6  8  1  0  0  0  0
  6 13  1  0  0  0  0
  6 14  1  0  0  0  0
  7 10  1  0  0  0  0
  7 15  1  0  0  0  0
  8  9  1  0  0  0  0
  8 16  1  0  0  0  0
  8 17  1  0  0  0  0
  9 11  1  0  0  0  0
  9 18  1  0  0  0  0
 10 12  1  0  0  0  0
 10 19  1  0  0  0  0
 11 20  1  0  0  0  0
 11 21  1  0  0  0  0
 11 22  1  0  0  0  0
M  END
> <PUBCHEM_COMPOUND_CID>
117979187

> <PUBCHEM_COMPOUND_CANONICALIZED>
1

> <PUBCHEM_CACTVS_COMPLEXITY>
147

> <PUBCHEM_CACTVS_HBOND_ACCEPTOR>
5

> <PUBCHEM_CACTVS_HBOND_DONOR>
4

> <PUBCHEM_CACTVS_ROTATABLE_BOND>
5

> <PUBCHEM_CACTVS_SUBSKEYS>
AAADccBgOAAAAAAAAAAAAAAAAAAAAAAAAAAAAAAAAAAAAAAAAAAAGgAACAAACBSggAICCAAAAgAIAACQCAIAAAAAAAAAAAFAAAABEBYAAAAAQAAFIAABAAHI6CSAAAAAAAAAAAAAAAAAAAAAAAAAAAAAAA==

> <PUBCHEM_IUPAC_OPENEYE_NAME>
2,3,6-trihydroxyheptanoic acid

> <PUBCHEM_IUPAC_CAS_NAME>
2,3,6-trihydroxyheptanoic acid

> <PUBCHEM_IUPAC_NAME_MARKUP>
2,3,6-trihydroxyheptanoic acid

> <PUBCHEM_IUPAC_NAME>
2,3,6-trihydroxyheptanoic acid

> <PUBCHEM_IUPAC_SYSTEMATIC_NAME>
2,3,6-tris(oxidanyl)heptanoic acid

> <PUBCHEM_IUPAC_TRADITIONAL_NAME>
2,3,6-trihydroxyenanthic acid

> <PUBCHEM_IUPAC_INCHI>
InChI=1S/C7H14O5/c1-4(8)2-3-5(9)6(10)7(11)12/h4-6,8-10H,2-3H2,1H3,(H,11,12)

> <PUBCHEM_IUPAC_INCHIKEY>
NLHAAPJKFQHMPR-UHFFFAOYSA-N

> <PUBCHEM_XLOGP3_AA>
-1

> <PUBCHEM_EXACT_MASS>
178.08412354

> <PUBCHEM_MOLECULAR_FORMULA>
C7H14O5

> <PUBCHEM_MOLECULAR_WEIGHT>
178.18

> <PUBCHEM_OPENEYE_CAN_SMILES>
CC(CCC(C(C(=O)O)O)O)O

> <PUBCHEM_OPENEYE_ISO_SMILES>
CC(CCC(C(C(=O)O)O)O)O

> <PUBCHEM_CACTVS_TPSA>
98

> <PUBCHEM_MONOISOTOPIC_WEIGHT>
178.08412354

> <PUBCHEM_TOTAL_CHARGE>
0

> <PUBCHEM_HEAVY_ATOM_COUNT>
12

> <PUBCHEM_ATOM_DEF_STEREO_COUNT>
0

> <PUBCHEM_ATOM_UDEF_STEREO_COUNT>
3

> <PUBCHEM_BOND_DEF_STEREO_COUNT>
0

> <PUBCHEM_BOND_UDEF_STEREO_COUNT>
0

> <PUBCHEM_ISOTOPIC_ATOM_COUNT>
0

> <PUBCHEM_COMPONENT_COUNT>
1

> <PUBCHEM_CACTVS_TAUTO_COUNT>
-1

> <PUBCHEM_COORDINATE_TYPE>
1
5
255

> <PUBCHEM_BONDANNOTATIONS>
7  1  3
9  2  3
10  3  3

$$$$
