 
  -OEChem-10192103462D

 71 76  0     0  0  0  0  0  0999 V2000
   11.8774   -0.1235    0.0000 S   0  0  0  0  0  0  0  0  0  0  0  0
   12.1864    0.8276    0.0000 O   0  0  0  0  0  0  0  0  0  0  0  0
   11.5683   -1.0745    0.0000 O   0  0  0  0  0  0  0  0  0  0  0  0
   12.5011   -3.0579    0.0000 O   0  5  0  0  0  0  0  0  0  0  0  0
   11.3421   -1.7708    0.0000 O   0  0  0  0  0  0  0  0  0  0  0  0
    6.3981   -3.9752    0.0000 O   0  0  0  0  0  0  0  0  0  0  0  0
    9.0242    0.8036    0.0000 N   0  0  0  0  0  0  0  0  0  0  0  0
   10.9263    0.1855    0.0000 N   0  0  0  0  0  0  0  0  0  0  0  0
    7.7641    2.0636    0.0000 N   0  0  0  0  0  0  0  0  0  0  0  0
    6.7641    2.0636    0.0000 N   0  0  0  0  0  0  0  0  0  0  0  0
   12.2932   -2.0798    0.0000 N   0  3  0  0  0  0  0  0  0  0  0  0
    6.3981   -0.9752    0.0000 N   0  0  0  0  0  0  0  0  0  0  0  0
    6.3981   -1.9752    0.0000 N   0  0  0  0  0  0  0  0  0  0  0  0
    4.6660   -1.9752    0.0000 N   0  0  0  0  0  0  0  0  0  0  0  0
    4.6660   -3.9752    0.0000 N   0  0  0  0  0  0  0  0  0  0  0  0
    9.7673    1.4727    0.0000 C   0  0  0  0  0  0  0  0  0  0  0  0
    9.2321   -0.1746    0.0000 C   0  0  0  0  0  0  0  0  0  0  0  0
   10.7184    1.1637    0.0000 C   0  0  0  0  0  0  0  0  0  0  0  0
   10.1832   -0.4836    0.0000 C   0  0  0  0  0  0  0  0  0  0  0  0
    8.0731    1.1126    0.0000 C   0  0  0  0  0  0  0  0  0  0  0  0
    7.2641    0.5248    0.0000 C   0  0  0  0  0  0  0  0  0  0  0  0
   12.8284   -0.4325    0.0000 C   0  0  0  0  0  0  0  0  0  0  0  0
    6.4551    1.1126    0.0000 C   0  0  0  0  0  0  0  0  0  0  0  0
    8.3519    2.8726    0.0000 C   0  0  0  0  0  0  0  0  0  0  0  0
   13.0363   -1.4107    0.0000 C   0  0  0  0  0  0  0  0  0  0  0  0
   13.5716    0.2366    0.0000 C   0  0  0  0  0  0  0  0  0  0  0  0
    7.2641   -0.4752    0.0000 C   0  0  0  0  0  0  0  0  0  0  0  0
    5.5040    0.8036    0.0000 C   0  0  0  0  0  0  0  0  0  0  0  0
   13.9874   -1.7197    0.0000 C   0  0  0  0  0  0  0  0  0  0  0  0
    7.9452    3.7862    0.0000 C   0  0  0  0  0  0  0  0  0  0  0  0
    9.3464    2.7681    0.0000 C   0  0  0  0  0  0  0  0  0  0  0  0
   14.5226   -0.0724    0.0000 C   0  0  0  0  0  0  0  0  0  0  0  0
   14.7305   -1.0505    0.0000 C   0  0  0  0  0  0  0  0  0  0  0  0
    8.5329    4.5952    0.0000 C   0  0  0  0  0  0  0  0  0  0  0  0
    9.9342    3.5771    0.0000 C   0  0  0  0  0  0  0  0  0  0  0  0
    9.5275    4.4907    0.0000 C   0  0  0  0  0  0  0  0  0  0  0  0
    5.5321   -2.4752    0.0000 C   0  0  0  0  0  0  0  0  0  0  0  0
    5.5321   -3.4752    0.0000 C   0  0  0  0  0  0  0  0  0  0  0  0
    3.8000   -2.4752    0.0000 C   0  0  0  0  0  0  0  0  0  0  0  0
    3.8000   -3.4752    0.0000 C   0  0  0  0  0  0  0  0  0  0  0  0
    2.9061   -1.9406    0.0000 C   0  0  0  0  0  0  0  0  0  0  0  0
    2.9061   -4.0099    0.0000 C   0  0  0  0  0  0  0  0  0  0  0  0
    2.0000   -2.4544    0.0000 C   0  0  0  0  0  0  0  0  0  0  0  0
    2.0000   -3.4960    0.0000 C   0  0  0  0  0  0  0  0  0  0  0  0
   10.0584    2.0201    0.0000 H   0  0  0  0  0  0  0  0  0  0  0  0
    9.2788    1.8544    0.0000 H   0  0  0  0  0  0  0  0  0  0  0  0
    8.6125   -0.1962    0.0000 H   0  0  0  0  0  0  0  0  0  0  0  0
    9.1458   -0.7886    0.0000 H   0  0  0  0  0  0  0  0  0  0  0  0
   11.3380    1.1853    0.0000 H   0  0  0  0  0  0  0  0  0  0  0  0
   10.8047    1.7776    0.0000 H   0  0  0  0  0  0  0  0  0  0  0  0
    9.8921   -1.0310    0.0000 H   0  0  0  0  0  0  0  0  0  0  0  0
   10.6717   -0.8653    0.0000 H   0  0  0  0  0  0  0  0  0  0  0  0
   13.4426    0.8431    0.0000 H   0  0  0  0  0  0  0  0  0  0  0  0
    7.8010   -0.7852    0.0000 H   0  0  0  0  0  0  0  0  0  0  0  0
    5.3124    1.3932    0.0000 H   0  0  0  0  0  0  0  0  0  0  0  0
    4.9144    0.6120    0.0000 H   0  0  0  0  0  0  0  0  0  0  0  0
    5.6956    0.2139    0.0000 H   0  0  0  0  0  0  0  0  0  0  0  0
   14.1163   -2.3261    0.0000 H   0  0  0  0  0  0  0  0  0  0  0  0
    7.3286    3.8510    0.0000 H   0  0  0  0  0  0  0  0  0  0  0  0
    9.5986    2.2017    0.0000 H   0  0  0  0  0  0  0  0  0  0  0  0
   14.9834    0.3425    0.0000 H   0  0  0  0  0  0  0  0  0  0  0  0
   15.3202   -1.2421    0.0000 H   0  0  0  0  0  0  0  0  0  0  0  0
    8.2808    5.1616    0.0000 H   0  0  0  0  0  0  0  0  0  0  0  0
   10.5508    3.5123    0.0000 H   0  0  0  0  0  0  0  0  0  0  0  0
    9.8919    4.9923    0.0000 H   0  0  0  0  0  0  0  0  0  0  0  0
    6.9350   -2.2852    0.0000 H   0  0  0  0  0  0  0  0  0  0  0  0
    4.6660   -4.5952    0.0000 H   0  0  0  0  0  0  0  0  0  0  0  0
    2.9132   -1.3206    0.0000 H   0  0  0  0  0  0  0  0  0  0  0  0
    2.9132   -4.6298    0.0000 H   0  0  0  0  0  0  0  0  0  0  0  0
    1.4643   -2.1423    0.0000 H   0  0  0  0  0  0  0  0  0  0  0  0
    1.4643   -3.8081    0.0000 H   0  0  0  0  0  0  0  0  0  0  0  0
  1  2  2  0  0  0  0
  1  3  2  0  0  0  0
  1  8  1  0  0  0  0
  1 22  1  0  0  0  0
  4 11  1  0  0  0  0
  5 11  2  0  0  0  0
  6 38  2  0  0  0  0
  7 16  1  0  0  0  0
  7 17  1  0  0  0  0
  7 20  1  0  0  0  0
  8 18  1  0  0  0  0
  8 19  1  0  0  0  0
  9 10  1  0  0  0  0
  9 20  1  0  0  0  0
  9 24  1  0  0  0  0
 10 23  2  0  0  0  0
 11 25  1  0  0  0  0
 12 13  1  0  0  0  0
 12 27  2  0  0  0  0
 13 37  1  0  0  0  0
 13 66  1  0  0  0  0
 14 37  2  0  0  0  0
 14 39  1  0  0  0  0
 15 38  1  0  0  0  0
 15 40  1  0  0  0  0
 15 67  1  0  0  0  0
 16 18  1  0  0  0  0
 16 45  1  0  0  0  0
 16 46  1  0  0  0  0
 17 19  1  0  0  0  0
 17 47  1  0  0  0  0
 17 48  1  0  0  0  0
 18 49  1  0  0  0  0
 18 50  1  0  0  0  0
 19 51  1  0  0  0  0
 19 52  1  0  0  0  0
 20 21  2  0  0  0  0
 21 23  1  0  0  0  0
 21 27  1  0  0  0  0
 22 25  1  0  0  0  0
 22 26  2  0  0  0  0
 23 28  1  0  0  0  0
 24 30  2  0  0  0  0
 24 31  1  0  0  0  0
 25 29  2  0  0  0  0
 26 32  1  0  0  0  0
 26 53  1  0  0  0  0
 27 54  1  0  0  0  0
 28 55  1  0  0  0  0
 28 56  1  0  0  0  0
 28 57  1  0  0  0  0
 29 33  1  0  0  0  0
 29 58  1  0  0  0  0
 30 34  1  0  0  0  0
 30 59  1  0  0  0  0
 31 35  2  0  0  0  0
 31 60  1  0  0  0  0
 32 33  2  0  0  0  0
 32 61  1  0  0  0  0
 33 62  1  0  0  0  0
 34 36  2  0  0  0  0
 34 63  1  0  0  0  0
 35 36  1  0  0  0  0
 35 64  1  0  0  0  0
 36 65  1  0  0  0  0
 37 38  1  0  0  0  0
 39 40  1  0  0  0  0
 39 41  2  0  0  0  0
 40 42  2  0  0  0  0
 41 43  1  0  0  0  0
 41 68  1  0  0  0  0
 42 44  1  0  0  0  0
 42 69  1  0  0  0  0
 43 44  2  0  0  0  0
 43 70  1  0  0  0  0
 44 71  1  0  0  0  0
M  CHG  2   4  -1  11   1
M  END
> <PUBCHEM_COMPOUND_CID>
118711241

> <PUBCHEM_COMPOUND_CANONICALIZED>
1

> <PUBCHEM_CACTVS_COMPLEXITY>
1210

> <PUBCHEM_CACTVS_HBOND_ACCEPTOR>
10

> <PUBCHEM_CACTVS_HBOND_DONOR>
2

> <PUBCHEM_CACTVS_ROTATABLE_BOND>
7

> <PUBCHEM_CACTVS_SUBSKEYS>
AAADceB7+ABAAAAAAAAAAAAAAAAAAWAAAAA8YMECAAAAAACB1AAAHgQcQAAADAjB3gQz8ZP6QAKrAzdzd3DSBDMhAgA9mDy4dJqIYGLA2dGUpAhonALIyCcQAAAIAAAAAAAAASAAAAAAAAACQAAAAAAAAA==

> <PUBCHEM_IUPAC_OPENEYE_NAME>
3-[(2E)-2-[[3-methyl-5-[4-(2-nitrophenyl)sulfonylpiperazin-1-yl]-1-phenyl-pyrazol-4-yl]methylene]hydrazino]-1H-quinoxalin-2-one

> <PUBCHEM_IUPAC_CAS_NAME>
3-[(2E)-2-[[3-methyl-5-[4-(2-nitrophenyl)sulfonyl-1-piperazinyl]-1-phenyl-4-pyrazolyl]methylidene]hydrazinyl]-1H-quinoxalin-2-one

> <PUBCHEM_IUPAC_NAME_MARKUP>
3-[(2<I>E</I>)-2-[[3-methyl-5-[4-(2-nitrophenyl)sulfonylpiperazin-1-yl]-1-phenylpyrazol-4-yl]methylidene]hydrazinyl]-1<I>H</I>-quinoxalin-2-one

> <PUBCHEM_IUPAC_NAME>
3-[(2E)-2-[[3-methyl-5-[4-(2-nitrophenyl)sulfonylpiperazin-1-yl]-1-phenylpyrazol-4-yl]methylidene]hydrazinyl]-1H-quinoxalin-2-one

> <PUBCHEM_IUPAC_SYSTEMATIC_NAME>
3-[(2E)-2-[[3-methyl-5-[4-(2-nitrophenyl)sulfonylpiperazin-1-yl]-1-phenyl-pyrazol-4-yl]methylidene]hydrazinyl]-1H-quinoxalin-2-one

> <PUBCHEM_IUPAC_TRADITIONAL_NAME>
3-[(N'E)-N'-[[3-methyl-5-[4-(2-nitrophenyl)sulfonylpiperazino]-1-phenyl-pyrazol-4-yl]methylene]hydrazino]-1H-quinoxalin-2-one

> <PUBCHEM_IUPAC_INCHI>
InChI=1S/C29H27N9O5S/c1-20-22(19-30-33-27-28(39)32-24-12-6-5-11-23(24)31-27)29(37(34-20)21-9-3-2-4-10-21)35-15-17-36(18-16-35)44(42,43)26-14-8-7-13-25(26)38(40)41/h2-14,19H,15-18H2,1H3,(H,31,33)(H,32,39)/b30-19+

> <PUBCHEM_IUPAC_INCHIKEY>
DWNJEAVGCRXUQS-NDZAJKAJSA-N

> <PUBCHEM_XLOGP3_AA>
3.4

> <PUBCHEM_EXACT_MASS>
613.18558617

> <PUBCHEM_MOLECULAR_FORMULA>
C29H27N9O5S

> <PUBCHEM_MOLECULAR_WEIGHT>
613.6

> <PUBCHEM_OPENEYE_CAN_SMILES>
CC1=NN(C(=C1C=NNC2=NC3=CC=CC=C3NC2=O)N4CCN(CC4)S(=O)(=O)C5=CC=CC=C5[N+](=O)[O-])C6=CC=CC=C6

> <PUBCHEM_OPENEYE_ISO_SMILES>
CC1=NN(C(=C1/C=N/NC2=NC3=CC=CC=C3NC2=O)N4CCN(CC4)S(=O)(=O)C5=CC=CC=C5[N+](=O)[O-])C6=CC=CC=C6

> <PUBCHEM_CACTVS_TPSA>
179

> <PUBCHEM_MONOISOTOPIC_WEIGHT>
613.18558617

> <PUBCHEM_TOTAL_CHARGE>
0

> <PUBCHEM_HEAVY_ATOM_COUNT>
44

> <PUBCHEM_ATOM_DEF_STEREO_COUNT>
0

> <PUBCHEM_ATOM_UDEF_STEREO_COUNT>
0

> <PUBCHEM_BOND_DEF_STEREO_COUNT>
1

> <PUBCHEM_BOND_UDEF_STEREO_COUNT>
0

> <PUBCHEM_ISOTOPIC_ATOM_COUNT>
0

> <PUBCHEM_COMPONENT_COUNT>
1

> <PUBCHEM_CACTVS_TAUTO_COUNT>
-1

> <PUBCHEM_COORDINATE_TYPE>
1
5
255

> <PUBCHEM_BONDANNOTATIONS>
10  23  8
14  37  8
14  39  8
15  38  8
15  40  8
20  21  8
21  23  8
22  25  8
22  26  8
24  30  8
24  31  8
25  29  8
26  32  8
29  33  8
30  34  8
31  35  8
32  33  8
34  36  8
35  36  8
37  38  8
39  40  8
39  41  8
40  42  8
41  43  8
42  44  8
43  44  8
9  10  8
9  20  8

$$$$
