 
  -OEChem-10192104112D

 36 37  0     1  0  0  0  0  0999 V2000
    6.8547    0.3188    0.0000 S   0  0  0  0  0  0  0  0  0  0  0  0
    3.4088    0.4182    0.0000 O   0  0  0  0  0  0  0  0  0  0  0  0
    3.4088   -1.8288    0.0000 O   0  0  0  0  0  0  0  0  0  0  0  0
    7.3581   -0.5453    0.0000 O   0  0  0  0  0  0  0  0  0  0  0  0
    6.3514    1.1829    0.0000 O   0  0  0  0  0  0  0  0  0  0  0  0
   10.3188    0.3322    0.0000 O   0  0  0  0  0  0  0  0  0  0  0  0
    9.4470    1.8288    0.0000 O   0  0  0  0  0  0  0  0  0  0  0  0
    7.7188    0.8222    0.0000 C   0  0  0  0  0  0  0  0  0  0  0  0
    8.5868    0.3255    0.0000 C   0  0  3  0  0  0  0  0  0  0  0  0
    5.9906   -0.1845    0.0000 C   0  0  0  0  0  0  0  0  0  0  0  0
    5.0846    0.3293    0.0000 C   0  0  0  0  0  0  0  0  0  0  0  0
    4.1906   -0.2053    0.0000 C   0  0  0  0  0  0  0  0  0  0  0  0
    4.1906   -1.2053    0.0000 C   0  0  0  0  0  0  0  0  0  0  0  0
    8.5906   -0.6745    0.0000 C   0  0  0  0  0  0  0  0  0  0  0  0
    5.9906   -1.2262    0.0000 C   0  0  0  0  0  0  0  0  0  0  0  0
    2.0000   -0.7053    0.0000 C   0  0  0  0  0  0  0  0  0  0  0  0
    2.4339    0.1956    0.0000 C   0  0  0  0  0  0  0  0  0  0  0  0
    2.4339   -1.6063    0.0000 C   0  0  0  0  0  0  0  0  0  0  0  0
    5.0846   -1.7400    0.0000 C   0  0  0  0  0  0  0  0  0  0  0  0
    9.4509    0.8288    0.0000 C   0  0  0  0  0  0  0  0  0  0  0  0
    8.1155    1.2986    0.0000 H   0  0  0  0  0  0  0  0  0  0  0  0
    7.3185    1.2956    0.0000 H   0  0  0  0  0  0  0  0  0  0  0  0
    8.0510    0.0134    0.0000 H   0  0  0  0  0  0  0  0  0  0  0  0
    5.0774    0.9493    0.0000 H   0  0  0  0  0  0  0  0  0  0  0  0
    7.9706   -0.6769    0.0000 H   0  0  0  0  0  0  0  0  0  0  0  0
    8.5930   -1.2945    0.0000 H   0  0  0  0  0  0  0  0  0  0  0  0
    9.2106   -0.6721    0.0000 H   0  0  0  0  0  0  0  0  0  0  0  0
    6.5264   -1.5382    0.0000 H   0  0  0  0  0  0  0  0  0  0  0  0
    1.5153   -0.3188    0.0000 H   0  0  0  0  0  0  0  0  0  0  0  0
    1.5153   -1.0919    0.0000 H   0  0  0  0  0  0  0  0  0  0  0  0
    2.4339    0.8156    0.0000 H   0  0  0  0  0  0  0  0  0  0  0  0
    1.8294    0.3336    0.0000 H   0  0  0  0  0  0  0  0  0  0  0  0
    1.8294   -1.7443    0.0000 H   0  0  0  0  0  0  0  0  0  0  0  0
    2.4339   -2.2263    0.0000 H   0  0  0  0  0  0  0  0  0  0  0  0
    5.0774   -2.3600    0.0000 H   0  0  0  0  0  0  0  0  0  0  0  0
   10.8546    0.6442    0.0000 H   0  0  0  0  0  0  0  0  0  0  0  0
  1  4  2  0  0  0  0
  1  5  2  0  0  0  0
  1  8  1  0  0  0  0
  1 10  1  0  0  0  0
  2 12  1  0  0  0  0
  2 17  1  0  0  0  0
  3 13  1  0  0  0  0
  3 18  1  0  0  0  0
  6 20  1  0  0  0  0
  6 36  1  0  0  0  0
  7 20  2  0  0  0  0
  8  9  1  0  0  0  0
  8 21  1  0  0  0  0
  8 22  1  0  0  0  0
  9 14  1  0  0  0  0
  9 20  1  0  0  0  0
  9 23  1  0  0  0  0
 10 11  2  0  0  0  0
 10 15  1  0  0  0  0
 11 12  1  0  0  0  0
 11 24  1  0  0  0  0
 12 13  2  0  0  0  0
 13 19  1  0  0  0  0
 14 25  1  0  0  0  0
 14 26  1  0  0  0  0
 14 27  1  0  0  0  0
 15 19  2  0  0  0  0
 15 28  1  0  0  0  0
 16 17  1  0  0  0  0
 16 18  1  0  0  0  0
 16 29  1  0  0  0  0
 16 30  1  0  0  0  0
 17 31  1  0  0  0  0
 17 32  1  0  0  0  0
 18 33  1  0  0  0  0
 18 34  1  0  0  0  0
 19 35  1  0  0  0  0
M  END
> <PUBCHEM_COMPOUND_CID>
43538316

> <PUBCHEM_COMPOUND_CANONICALIZED>
1

> <PUBCHEM_CACTVS_COMPLEXITY>
440

> <PUBCHEM_CACTVS_HBOND_ACCEPTOR>
6

> <PUBCHEM_CACTVS_HBOND_DONOR>
1

> <PUBCHEM_CACTVS_ROTATABLE_BOND>
4

> <PUBCHEM_CACTVS_SUBSKEYS>
AAADceBwOABAAAAAAAAAAAAAAAAAAAAAAAAwAAAABIAAAAABAAAAGgQACAAADQSk0AKyD4AABgqIACDSCHBCCAAgKBAIiBkGiIgNJiKkMRqCeCKlwBEqqAeAQAAAAIAABAAAQAABAAAIAACAAAAAAAAAAA==

> <PUBCHEM_IUPAC_OPENEYE_NAME>
3-(3,4-dihydro-2H-1,5-benzodioxepin-7-ylsulfonyl)-2-methyl-propanoic acid

> <PUBCHEM_IUPAC_CAS_NAME>
3-(3,4-dihydro-2H-1,5-benzodioxepin-7-ylsulfonyl)-2-methylpropanoic acid

> <PUBCHEM_IUPAC_NAME_MARKUP>
3-(3,4-dihydro-2<I>H</I>-1,5-benzodioxepin-7-ylsulfonyl)-2-methylpropanoic acid

> <PUBCHEM_IUPAC_NAME>
3-(3,4-dihydro-2H-1,5-benzodioxepin-7-ylsulfonyl)-2-methylpropanoic acid

> <PUBCHEM_IUPAC_SYSTEMATIC_NAME>
3-(3,4-dihydro-2H-1,5-benzodioxepin-7-ylsulfonyl)-2-methyl-propanoic acid

> <PUBCHEM_IUPAC_TRADITIONAL_NAME>
3-(3,4-dihydro-2H-1,5-benzodioxepin-7-ylsulfonyl)-2-methyl-propionic acid

> <PUBCHEM_IUPAC_INCHI>
InChI=1S/C13H16O6S/c1-9(13(14)15)8-20(16,17)10-3-4-11-12(7-10)19-6-2-5-18-11/h3-4,7,9H,2,5-6,8H2,1H3,(H,14,15)

> <PUBCHEM_IUPAC_INCHIKEY>
WUMVOGBJOMORRY-UHFFFAOYSA-N

> <PUBCHEM_XLOGP3_AA>
1.3

> <PUBCHEM_EXACT_MASS>
300.06675940

> <PUBCHEM_MOLECULAR_FORMULA>
C13H16O6S

> <PUBCHEM_MOLECULAR_WEIGHT>
300.33

> <PUBCHEM_OPENEYE_CAN_SMILES>
CC(CS(=O)(=O)C1=CC2=C(C=C1)OCCCO2)C(=O)O

> <PUBCHEM_OPENEYE_ISO_SMILES>
CC(CS(=O)(=O)C1=CC2=C(C=C1)OCCCO2)C(=O)O

> <PUBCHEM_CACTVS_TPSA>
98.3

> <PUBCHEM_MONOISOTOPIC_WEIGHT>
300.06675940

> <PUBCHEM_TOTAL_CHARGE>
0

> <PUBCHEM_HEAVY_ATOM_COUNT>
20

> <PUBCHEM_ATOM_DEF_STEREO_COUNT>
0

> <PUBCHEM_ATOM_UDEF_STEREO_COUNT>
1

> <PUBCHEM_BOND_DEF_STEREO_COUNT>
0

> <PUBCHEM_BOND_UDEF_STEREO_COUNT>
0

> <PUBCHEM_ISOTOPIC_ATOM_COUNT>
0

> <PUBCHEM_COMPONENT_COUNT>
1

> <PUBCHEM_CACTVS_TAUTO_COUNT>
-1

> <PUBCHEM_COORDINATE_TYPE>
1
5
255

> <PUBCHEM_BONDANNOTATIONS>
10  11  8
10  15  8
11  12  8
12  13  8
13  19  8
15  19  8
9  14  3

$$$$
