 
  -OEChem-10192103302D

 56 63  0     0  0  0  0  0  0999 V2000
    3.4890    1.8382    0.0000 O   0  0  0  0  0  0  0  0  0  0  0  0
    9.5494   -1.6608    0.0000 O   0  0  0  0  0  0  0  0  0  0  0  0
    8.6657    2.8226    0.0000 O   0  0  0  0  0  0  0  0  0  0  0  0
    2.5501    0.3908    0.0000 O   0  0  0  0  0  0  0  0  0  0  0  0
   10.4039   -0.2006    0.0000 O   0  0  0  0  0  0  0  0  0  0  0  0
    8.7654   -3.1976    0.0000 O   0  0  0  0  0  0  0  0  0  0  0  0
    4.3263    3.3083    0.0000 O   0  0  0  0  0  0  0  0  0  0  0  0
    6.0688    0.3085    0.0000 C   0  0  0  0  0  0  0  0  0  0  0  0
    6.9348   -0.1915    0.0000 C   0  0  0  0  0  0  0  0  0  0  0  0
    5.1588   -0.1984    0.0000 C   0  0  0  0  0  0  0  0  0  0  0  0
    6.9508   -1.2330    0.0000 C   0  0  0  0  0  0  0  0  0  0  0  0
    6.0688    1.3084    0.0000 C   0  0  0  0  0  0  0  0  0  0  0  0
    7.8008    0.3085    0.0000 C   0  0  0  0  0  0  0  0  0  0  0  0
    5.1507   -1.2400    0.0000 C   0  0  0  0  0  0  0  0  0  0  0  0
    6.0528   -1.7608    0.0000 C   0  0  0  0  0  0  0  0  0  0  0  0
    6.9348    1.8084    0.0000 C   0  0  0  0  0  0  0  0  0  0  0  0
    7.8008    1.3084    0.0000 C   0  0  0  0  0  0  0  0  0  0  0  0
    4.3194    0.3298    0.0000 C   0  0  0  0  0  0  0  0  0  0  0  0
    5.2105    1.8054    0.0000 C   0  0  0  0  0  0  0  0  0  0  0  0
    7.8280   -1.6958    0.0000 C   0  0  0  0  0  0  0  0  0  0  0  0
    8.6603   -0.1863    0.0000 C   0  0  0  0  0  0  0  0  0  0  0  0
    4.3450    1.3212    0.0000 C   0  0  0  0  0  0  0  0  0  0  0  0
    8.6737   -1.1779    0.0000 C   0  0  0  0  0  0  0  0  0  0  0  0
    4.2357   -1.7382    0.0000 C   0  0  0  0  0  0  0  0  0  0  0  0
    6.0789   -2.8023    0.0000 C   0  0  0  0  0  0  0  0  0  0  0  0
    6.9447    2.8197    0.0000 C   0  0  0  0  0  0  0  0  0  0  0  0
    8.6716    1.8226    0.0000 C   0  0  0  0  0  0  0  0  0  0  0  0
    3.3932   -0.1470    0.0000 C   0  0  0  0  0  0  0  0  0  0  0  0
    7.8781   -2.7364    0.0000 C   0  0  0  0  0  0  0  0  0  0  0  0
    5.1970    2.8166    0.0000 C   0  0  0  0  0  0  0  0  0  0  0  0
    9.5427    0.3076    0.0000 C   0  0  0  0  0  0  0  0  0  0  0  0
    3.3510   -1.1880    0.0000 C   0  0  0  0  0  0  0  0  0  0  0  0
    6.9977   -3.2934    0.0000 C   0  0  0  0  0  0  0  0  0  0  0  0
    6.0700    3.3271    0.0000 C   0  0  0  0  0  0  0  0  0  0  0  0
    9.5484    1.3188    0.0000 C   0  0  0  0  0  0  0  0  0  0  0  0
    4.2068   -2.7377    0.0000 C   0  0  0  0  0  0  0  0  0  0  0  0
    5.2277   -3.3271    0.0000 C   0  0  0  0  0  0  0  0  0  0  0  0
    7.8136    3.3145    0.0000 C   0  0  0  0  0  0  0  0  0  0  0  0
    2.8031   -1.4781    0.0000 H   0  0  0  0  0  0  0  0  0  0  0  0
    7.0204   -3.9130    0.0000 H   0  0  0  0  0  0  0  0  0  0  0  0
    6.0688    3.9471    0.0000 H   0  0  0  0  0  0  0  0  0  0  0  0
   10.0859    1.6279    0.0000 H   0  0  0  0  0  0  0  0  0  0  0  0
    3.5871   -2.7198    0.0000 H   0  0  0  0  0  0  0  0  0  0  0  0
    4.1889   -3.3575    0.0000 H   0  0  0  0  0  0  0  0  0  0  0  0
    4.8266   -2.7556    0.0000 H   0  0  0  0  0  0  0  0  0  0  0  0
    4.9023   -2.7993    0.0000 H   0  0  0  0  0  0  0  0  0  0  0  0
    4.6999   -3.6525    0.0000 H   0  0  0  0  0  0  0  0  0  0  0  0
    5.5530   -3.8549    0.0000 H   0  0  0  0  0  0  0  0  0  0  0  0
    8.1204    2.7758    0.0000 H   0  0  0  0  0  0  0  0  0  0  0  0
    8.3524    3.6213    0.0000 H   0  0  0  0  0  0  0  0  0  0  0  0
    7.5068    3.8533    0.0000 H   0  0  0  0  0  0  0  0  0  0  0  0
    2.9461    1.5388    0.0000 H   0  0  0  0  0  0  0  0  0  0  0  0
    9.5616   -2.2807    0.0000 H   0  0  0  0  0  0  0  0  0  0  0  0
    9.2008    3.1358    0.0000 H   0  0  0  0  0  0  0  0  0  0  0  0
    2.0000    0.1049    0.0000 H   0  0  0  0  0  0  0  0  0  0  0  0
   10.9438    0.1043    0.0000 H   0  0  0  0  0  0  0  0  0  0  0  0
  1 22  1  0  0  0  0
  1 52  1  0  0  0  0
  2 23  1  0  0  0  0
  2 53  1  0  0  0  0
  3 27  1  0  0  0  0
  3 54  1  0  0  0  0
  4 28  1  0  0  0  0
  4 55  1  0  0  0  0
  5 31  1  0  0  0  0
  5 56  1  0  0  0  0
  6 29  2  0  0  0  0
  7 30  2  0  0  0  0
  8  9  1  0  0  0  0
  8 10  2  0  0  0  0
  8 12  1  0  0  0  0
  9 11  2  0  0  0  0
  9 13  1  0  0  0  0
 10 14  1  0  0  0  0
 10 18  1  0  0  0  0
 11 15  1  0  0  0  0
 11 20  1  0  0  0  0
 12 16  2  0  0  0  0
 12 19  1  0  0  0  0
 13 17  2  0  0  0  0
 13 21  1  0  0  0  0
 14 15  2  0  0  0  0
 14 24  1  0  0  0  0
 15 25  1  0  0  0  0
 16 17  1  0  0  0  0
 16 26  1  0  0  0  0
 17 27  1  0  0  0  0
 18 22  1  0  0  0  0
 18 28  2  0  0  0  0
 19 22  2  0  0  0  0
 19 30  1  0  0  0  0
 20 23  2  0  0  0  0
 20 29  1  0  0  0  0
 21 23  1  0  0  0  0
 21 31  2  0  0  0  0
 24 32  2  0  0  0  0
 24 36  1  0  0  0  0
 25 33  2  0  0  0  0
 25 37  1  0  0  0  0
 26 34  2  0  0  0  0
 26 38  1  0  0  0  0
 27 35  2  0  0  0  0
 28 32  1  0  0  0  0
 29 33  1  0  0  0  0
 30 34  1  0  0  0  0
 31 35  1  0  0  0  0
 32 39  1  0  0  0  0
 33 40  1  0  0  0  0
 34 41  1  0  0  0  0
 35 42  1  0  0  0  0
 36 43  1  0  0  0  0
 36 44  1  0  0  0  0
 36 45  1  0  0  0  0
 37 46  1  0  0  0  0
 37 47  1  0  0  0  0
 37 48  1  0  0  0  0
 38 49  1  0  0  0  0
 38 50  1  0  0  0  0
 38 51  1  0  0  0  0
M  END
> <PUBCHEM_COMPOUND_CID>
136162840

> <PUBCHEM_COMPOUND_CANONICALIZED>
1

> <PUBCHEM_CACTVS_COMPLEXITY>
1170

> <PUBCHEM_CACTVS_HBOND_ACCEPTOR>
7

> <PUBCHEM_CACTVS_HBOND_DONOR>
5

> <PUBCHEM_CACTVS_ROTATABLE_BOND>
0

> <PUBCHEM_CACTVS_SUBSKEYS>
AAADceB4OAAAAAAAAAAAAAAAAAAAAAAAAAAwYMGDAAAAAADBVAAAGgAACAAADASAmAAyBsAAAgCIAqBSAAACAAAkIAAAiAEGCMgIJzaCFRKAcUAl4BUImQeI7PTO4AADCAAYAADAAAYQADAAAAAAAAAAAA==

> <PUBCHEM_IUPAC_OPENEYE_NAME>
9,11,13,20,22-pentahydroxy-5,16,24-trimethyl-octacyclo[13.11.1.12,10.03,8.04,25.019,27.021,26.014,28]octacosa-1(26),2,4(25),5,8,10,12,14(28),15(27),16,19,21,23-tridecaene-7,18-dione

> <PUBCHEM_IUPAC_CAS_NAME>
9,11,13,20,22-pentahydroxy-5,16,24-trimethyloctacyclo[13.11.1.12,10.03,8.04,25.019,27.021,26.014,28]octacosa-1(26),2,4(25),5,8,10,12,14(28),15(27),16,19,21,23-tridecaene-7,18-dione

> <PUBCHEM_IUPAC_NAME_MARKUP>
9,11,13,20,22-pentahydroxy-5,16,24-trimethyloctacyclo[13.11.1.1<SUP>2,10</SUP>.0<SUP>3,8</SUP>.0<SUP>4,25</SUP>.0<SUP>19,27</SUP>.0<SUP>21,26</SUP>.0<SUP>14,28</SUP>]octacosa-1(26),2,4(25),5,8,10,12,14(28),15(27),16,19,21,23-tridecaene-7,18-dione

> <PUBCHEM_IUPAC_NAME>
9,11,13,20,22-pentahydroxy-5,16,24-trimethyloctacyclo[13.11.1.12,10.03,8.04,25.019,27.021,26.014,28]octacosa-1(26),2,4(25),5,8,10,12,14(28),15(27),16,19,21,23-tridecaene-7,18-dione

> <PUBCHEM_IUPAC_SYSTEMATIC_NAME>
5,13,16-trimethyl-9,11,20,22,24-pentakis(oxidanyl)octacyclo[13.11.1.12,10.03,8.04,25.019,27.021,26.014,28]octacosa-1(27),2(28),3,5,8,10,12,14,16,19,21,23,25-tridecaene-7,18-dione

> <PUBCHEM_IUPAC_TRADITIONAL_NAME>
9,11,13,20,22-pentahydroxy-5,16,24-trimethyl-octacyclo[13.11.1.12,10.03,8.04,25.019,27.021,26.014,28]octacosa-1(26),2,4(25),5,8,10,12,14(28),15(27),16,19,21,23-tridecaene-7,18-quinone

> <PUBCHEM_IUPAC_INCHI>
InChI=1S/C31H18O7/c1-8-4-11(32)20-24-16(8)17-9(2)5-12(33)21-25(17)29-27-19(14(35)7-15(36)23(27)31(21)38)18-10(3)6-13(34)22(30(20)37)26(18)28(24)29/h4-7,32,35-38H,1-3H3

> <PUBCHEM_IUPAC_INCHIKEY>
WLGHAEWZKMOZHE-UHFFFAOYSA-N

> <PUBCHEM_XLOGP3_AA>
6.4

> <PUBCHEM_EXACT_MASS>
502.10525291

> <PUBCHEM_MOLECULAR_FORMULA>
C31H18O7

> <PUBCHEM_MOLECULAR_WEIGHT>
502.5

> <PUBCHEM_OPENEYE_CAN_SMILES>
CC1=CC(=C2C3=C4C5=C(C(=CC(=O)C5=C2O)C)C6=C7C4=C8C(=C13)C(=CC(=O)C8=C(C7=C(C=C6O)O)O)C)O

> <PUBCHEM_OPENEYE_ISO_SMILES>
CC1=CC(=C2C3=C4C5=C(C(=CC(=O)C5=C2O)C)C6=C7C4=C8C(=C13)C(=CC(=O)C8=C(C7=C(C=C6O)O)O)C)O

> <PUBCHEM_CACTVS_TPSA>
135

> <PUBCHEM_MONOISOTOPIC_WEIGHT>
502.10525291

> <PUBCHEM_TOTAL_CHARGE>
0

> <PUBCHEM_HEAVY_ATOM_COUNT>
38

> <PUBCHEM_ATOM_DEF_STEREO_COUNT>
0

> <PUBCHEM_ATOM_UDEF_STEREO_COUNT>
0

> <PUBCHEM_BOND_DEF_STEREO_COUNT>
0

> <PUBCHEM_BOND_UDEF_STEREO_COUNT>
0

> <PUBCHEM_ISOTOPIC_ATOM_COUNT>
0

> <PUBCHEM_COMPONENT_COUNT>
1

> <PUBCHEM_CACTVS_TAUTO_COUNT>
-1

> <PUBCHEM_COORDINATE_TYPE>
1
5
255

> <PUBCHEM_BONDANNOTATIONS>
10  14  8
10  18  8
11  15  8
11  20  8
12  16  8
12  19  8
13  17  8
13  21  8
14  15  8
14  24  8
15  25  8
16  17  8
16  26  8
17  27  8
18  22  8
18  28  8
19  22  8
19  30  8
20  23  8
20  29  8
21  23  8
21  31  8
24  32  8
25  33  8
26  34  8
27  35  8
28  32  8
29  33  8
30  34  8
31  35  8
8  10  8
8  12  8
8  9  8
9  11  8
9  13  8

$$$$
