 
  -OEChem-10192103362D

 78 78  0     1  0  0  0  0  0999 V2000
    4.2690   -3.3450    0.0000 O   0  0  0  0  0  0  0  0  0  0  0  0
    6.0010   -3.3450    0.0000 O   0  0  0  0  0  0  0  0  0  0  0  0
    4.2690   -6.3450    0.0000 O   0  0  0  0  0  0  0  0  0  0  0  0
    2.5369   -5.3450    0.0000 O   0  0  0  0  0  0  0  0  0  0  0  0
    6.0010   -5.3450    0.0000 O   0  0  0  0  0  0  0  0  0  0  0  0
    2.5369   -2.3450    0.0000 O   0  0  0  0  0  0  0  0  0  0  0  0
    6.8671   -0.8450    0.0000 O   0  0  0  0  0  0  0  0  0  0  0  0
    8.5991   -1.8450    0.0000 O   0  0  0  0  0  0  0  0  0  0  0  0
    8.5991   -0.8450    0.0000 O   0  0  0  0  0  0  0  0  0  0  0  0
    9.4651   -3.3450    0.0000 O   0  0  0  0  0  0  0  0  0  0  0  0
    4.2690   -5.3450    0.0000 C   0  0  3  0  0  0  0  0  0  0  0  0
    3.4030   -4.8450    0.0000 C   0  0  3  0  0  0  0  0  0  0  0  0
    5.1350   -4.8450    0.0000 C   0  0  3  0  0  0  0  0  0  0  0  0
    3.4030   -3.8450    0.0000 C   0  0  3  0  0  0  0  0  0  0  0  0
    5.1350   -3.8450    0.0000 C   0  0  3  0  0  0  0  0  0  0  0  0
    2.5369   -3.3450    0.0000 C   0  0  0  0  0  0  0  0  0  0  0  0
    6.0010   -2.3450    0.0000 C   0  0  0  0  0  0  0  0  0  0  0  0
    6.8671   -1.8450    0.0000 C   0  0  3  0  0  0  0  0  0  0  0  0
    9.4651    2.6550    0.0000 C   0  0  0  0  0  0  0  0  0  0  0  0
    7.7331   -2.3450    0.0000 C   0  0  0  0  0  0  0  0  0  0  0  0
    8.5991    2.1550    0.0000 C   0  0  0  0  0  0  0  0  0  0  0  0
    9.4651    3.6550    0.0000 C   0  0  0  0  0  0  0  0  0  0  0  0
    8.5991    1.1550    0.0000 C   0  0  0  0  0  0  0  0  0  0  0  0
   10.3312    4.1550    0.0000 C   0  0  0  0  0  0  0  0  0  0  0  0
    7.7331    0.6550    0.0000 C   0  0  0  0  0  0  0  0  0  0  0  0
   10.3312    5.1550    0.0000 C   0  0  0  0  0  0  0  0  0  0  0  0
    7.7331   -0.3450    0.0000 C   0  0  0  0  0  0  0  0  0  0  0  0
   11.1972    5.6550    0.0000 C   0  0  0  0  0  0  0  0  0  0  0  0
   11.1972    6.6550    0.0000 C   0  0  0  0  0  0  0  0  0  0  0  0
    9.4651   -2.3450    0.0000 C   0  0  0  0  0  0  0  0  0  0  0  0
   10.3312   -1.8450    0.0000 C   0  0  0  0  0  0  0  0  0  0  0  0
   11.1972   -2.3450    0.0000 C   0  0  0  0  0  0  0  0  0  0  0  0
   12.0632   -1.8450    0.0000 C   0  0  0  0  0  0  0  0  0  0  0  0
   12.9292   -2.3450    0.0000 C   0  0  0  0  0  0  0  0  0  0  0  0
    3.7320   -5.6550    0.0000 H   0  0  0  0  0  0  0  0  0  0  0  0
    3.4030   -5.4650    0.0000 H   0  0  0  0  0  0  0  0  0  0  0  0
    5.1350   -5.4650    0.0000 H   0  0  0  0  0  0  0  0  0  0  0  0
    3.4030   -3.2250    0.0000 H   0  0  0  0  0  0  0  0  0  0  0  0
    5.1350   -3.2250    0.0000 H   0  0  0  0  0  0  0  0  0  0  0  0
    1.9264   -3.2373    0.0000 H   0  0  0  0  0  0  0  0  0  0  0  0
    2.3249   -3.9276    0.0000 H   0  0  0  0  0  0  0  0  0  0  0  0
    3.7320   -6.6550    0.0000 H   0  0  0  0  0  0  0  0  0  0  0  0
    5.7890   -1.7624    0.0000 H   0  0  0  0  0  0  0  0  0  0  0  0
    5.3905   -2.4527    0.0000 H   0  0  0  0  0  0  0  0  0  0  0  0
    2.0000   -5.0350    0.0000 H   0  0  0  0  0  0  0  0  0  0  0  0
    6.5380   -5.0350    0.0000 H   0  0  0  0  0  0  0  0  0  0  0  0
    7.4040   -1.5350    0.0000 H   0  0  0  0  0  0  0  0  0  0  0  0
    2.0000   -2.0350    0.0000 H   0  0  0  0  0  0  0  0  0  0  0  0
    9.6772    2.0724    0.0000 H   0  0  0  0  0  0  0  0  0  0  0  0
   10.0757    2.7627    0.0000 H   0  0  0  0  0  0  0  0  0  0  0  0
    8.3871    2.7376    0.0000 H   0  0  0  0  0  0  0  0  0  0  0  0
    7.9885    2.0473    0.0000 H   0  0  0  0  0  0  0  0  0  0  0  0
    7.3346   -2.8200    0.0000 H   0  0  0  0  0  0  0  0  0  0  0  0
    8.1316   -2.8200    0.0000 H   0  0  0  0  0  0  0  0  0  0  0  0
    9.2531    4.2376    0.0000 H   0  0  0  0  0  0  0  0  0  0  0  0
    8.8546    3.5473    0.0000 H   0  0  0  0  0  0  0  0  0  0  0  0
    8.8112    0.5724    0.0000 H   0  0  0  0  0  0  0  0  0  0  0  0
    9.2097    1.2627    0.0000 H   0  0  0  0  0  0  0  0  0  0  0  0
   10.5432    3.5724    0.0000 H   0  0  0  0  0  0  0  0  0  0  0  0
   10.9417    4.2627    0.0000 H   0  0  0  0  0  0  0  0  0  0  0  0
    7.5210    1.2376    0.0000 H   0  0  0  0  0  0  0  0  0  0  0  0
    7.1225    0.5473    0.0000 H   0  0  0  0  0  0  0  0  0  0  0  0
   10.1191    5.7376    0.0000 H   0  0  0  0  0  0  0  0  0  0  0  0
    9.7206    5.0473    0.0000 H   0  0  0  0  0  0  0  0  0  0  0  0
   11.4092    5.0724    0.0000 H   0  0  0  0  0  0  0  0  0  0  0  0
   11.8078    5.7627    0.0000 H   0  0  0  0  0  0  0  0  0  0  0  0
   11.8172    6.6550    0.0000 H   0  0  0  0  0  0  0  0  0  0  0  0
   11.1972    7.2750    0.0000 H   0  0  0  0  0  0  0  0  0  0  0  0
   10.5772    6.6550    0.0000 H   0  0  0  0  0  0  0  0  0  0  0  0
   10.7297   -1.3700    0.0000 H   0  0  0  0  0  0  0  0  0  0  0  0
    9.9326   -1.3700    0.0000 H   0  0  0  0  0  0  0  0  0  0  0  0
   10.7987   -2.8200    0.0000 H   0  0  0  0  0  0  0  0  0  0  0  0
   11.5957   -2.8200    0.0000 H   0  0  0  0  0  0  0  0  0  0  0  0
   12.4617   -1.3700    0.0000 H   0  0  0  0  0  0  0  0  0  0  0  0
   11.6647   -1.3700    0.0000 H   0  0  0  0  0  0  0  0  0  0  0  0
   12.6192   -2.8819    0.0000 H   0  0  0  0  0  0  0  0  0  0  0  0
   13.4662   -2.6550    0.0000 H   0  0  0  0  0  0  0  0  0  0  0  0
   13.2392   -1.8081    0.0000 H   0  0  0  0  0  0  0  0  0  0  0  0
  1 14  1  0  0  0  0
  1 15  1  0  0  0  0
  2 15  1  0  0  0  0
  2 17  1  0  0  0  0
  3 11  1  0  0  0  0
  3 42  1  0  0  0  0
  4 12  1  0  0  0  0
  4 45  1  0  0  0  0
  5 13  1  0  0  0  0
  5 46  1  0  0  0  0
  6 16  1  0  0  0  0
  6 48  1  0  0  0  0
  7 18  1  0  0  0  0
  7 27  1  0  0  0  0
  8 20  1  0  0  0  0
  8 30  1  0  0  0  0
  9 27  2  0  0  0  0
 10 30  2  0  0  0  0
 11 12  1  0  0  0  0
 11 13  1  0  0  0  0
 11 35  1  0  0  0  0
 12 14  1  0  0  0  0
 12 36  1  0  0  0  0
 13 15  1  0  0  0  0
 13 37  1  0  0  0  0
 14 16  1  0  0  0  0
 14 38  1  0  0  0  0
 15 39  1  0  0  0  0
 16 40  1  0  0  0  0
 16 41  1  0  0  0  0
 17 18  1  0  0  0  0
 17 43  1  0  0  0  0
 17 44  1  0  0  0  0
 18 20  1  0  0  0  0
 18 47  1  0  0  0  0
 19 21  1  0  0  0  0
 19 22  1  0  0  0  0
 19 49  1  0  0  0  0
 19 50  1  0  0  0  0
 20 53  1  0  0  0  0
 20 54  1  0  0  0  0
 21 23  1  0  0  0  0
 21 51  1  0  0  0  0
 21 52  1  0  0  0  0
 22 24  1  0  0  0  0
 22 55  1  0  0  0  0
 22 56  1  0  0  0  0
 23 25  1  0  0  0  0
 23 57  1  0  0  0  0
 23 58  1  0  0  0  0
 24 26  1  0  0  0  0
 24 59  1  0  0  0  0
 24 60  1  0  0  0  0
 25 27  1  0  0  0  0
 25 61  1  0  0  0  0
 25 62  1  0  0  0  0
 26 28  1  0  0  0  0
 26 63  1  0  0  0  0
 26 64  1  0  0  0  0
 28 29  1  0  0  0  0
 28 65  1  0  0  0  0
 28 66  1  0  0  0  0
 29 67  1  0  0  0  0
 29 68  1  0  0  0  0
 29 69  1  0  0  0  0
 30 31  1  0  0  0  0
 31 32  1  0  0  0  0
 31 70  1  0  0  0  0
 31 71  1  0  0  0  0
 32 33  1  0  0  0  0
 32 72  1  0  0  0  0
 32 73  1  0  0  0  0
 33 34  1  0  0  0  0
 33 74  1  0  0  0  0
 33 75  1  0  0  0  0
 34 76  1  0  0  0  0
 34 77  1  0  0  0  0
 34 78  1  0  0  0  0
M  END
> <PUBCHEM_COMPOUND_CID>
138279305

> <PUBCHEM_COMPOUND_CANONICALIZED>
1

> <PUBCHEM_CACTVS_COMPLEXITY>
558

> <PUBCHEM_CACTVS_HBOND_ACCEPTOR>
10

> <PUBCHEM_CACTVS_HBOND_DONOR>
4

> <PUBCHEM_CACTVS_ROTATABLE_BOND>
20

> <PUBCHEM_CACTVS_SUBSKEYS>
AAADcfB4PAAAAAAAAAAAAAAAAAAAAAAAAAAkAAAAAAAAAAAAAAAAGgAACAAACBSwgAMCCAAABgAIAACQCAAAAAAAAAAAAAEAAAAREBIAAAAiQAAFAAAHAAHI6KyAAAAAAAAAAAAAAAAAAAAAAAAAAAAAAA==

> <PUBCHEM_IUPAC_OPENEYE_NAME>
[1-(pentanoyloxymethyl)-2-[3,4,5-trihydroxy-6-(hydroxymethyl)tetrahydropyran-2-yl]oxy-ethyl] decanoate

> <PUBCHEM_IUPAC_CAS_NAME>
decanoic acid [1-(1-oxopentoxy)-3-[[3,4,5-trihydroxy-6-(hydroxymethyl)-2-oxanyl]oxy]propan-2-yl] ester

> <PUBCHEM_IUPAC_NAME_MARKUP>
[1-pentanoyloxy-3-[3,4,5-trihydroxy-6-(hydroxymethyl)oxan-2-yl]oxypropan-2-yl] decanoate

> <PUBCHEM_IUPAC_NAME>
[1-pentanoyloxy-3-[3,4,5-trihydroxy-6-(hydroxymethyl)oxan-2-yl]oxypropan-2-yl] decanoate

> <PUBCHEM_IUPAC_SYSTEMATIC_NAME>
[1-[6-(hydroxymethyl)-3,4,5-tris(oxidanyl)oxan-2-yl]oxy-3-pentanoyloxy-propan-2-yl] decanoate

> <PUBCHEM_IUPAC_TRADITIONAL_NAME>
capric acid [1-[(3,4,5-trihydroxy-6-methylol-tetrahydropyran-2-yl)oxymethyl]-2-valeryloxy-ethyl] ester

> <PUBCHEM_IUPAC_INCHI>
InChI=1S/C24H44O10/c1-3-5-7-8-9-10-11-13-20(27)33-17(15-31-19(26)12-6-4-2)16-32-24-23(30)22(29)21(28)18(14-25)34-24/h17-18,21-25,28-30H,3-16H2,1-2H3

> <PUBCHEM_IUPAC_INCHIKEY>
VGRHDEMNMRXHLC-UHFFFAOYSA-N

> <PUBCHEM_XLOGP3_AA>
3.2

> <PUBCHEM_EXACT_MASS>
492.29344760

> <PUBCHEM_MOLECULAR_FORMULA>
C24H44O10

> <PUBCHEM_MOLECULAR_WEIGHT>
492.6

> <PUBCHEM_OPENEYE_CAN_SMILES>
CCCCCCCCCC(=O)OC(COC1C(C(C(C(O1)CO)O)O)O)COC(=O)CCCC

> <PUBCHEM_OPENEYE_ISO_SMILES>
CCCCCCCCCC(=O)OC(COC1C(C(C(C(O1)CO)O)O)O)COC(=O)CCCC

> <PUBCHEM_CACTVS_TPSA>
152

> <PUBCHEM_MONOISOTOPIC_WEIGHT>
492.29344760

> <PUBCHEM_TOTAL_CHARGE>
0

> <PUBCHEM_HEAVY_ATOM_COUNT>
34

> <PUBCHEM_ATOM_DEF_STEREO_COUNT>
0

> <PUBCHEM_ATOM_UDEF_STEREO_COUNT>
6

> <PUBCHEM_BOND_DEF_STEREO_COUNT>
0

> <PUBCHEM_BOND_UDEF_STEREO_COUNT>
0

> <PUBCHEM_ISOTOPIC_ATOM_COUNT>
0

> <PUBCHEM_COMPONENT_COUNT>
1

> <PUBCHEM_CACTVS_TAUTO_COUNT>
-1

> <PUBCHEM_COORDINATE_TYPE>
1
5
255

> <PUBCHEM_BONDANNOTATIONS>
14  16  3
18  17  3
15  2  3
11  3  3
12  4  3
13  5  3

$$$$
