 
  -OEChem-10192104142D

 36 36  0     0  0  0  0  0  0999 V2000
    2.0000   -2.3100    0.0000 O   0  0  0  0  0  0  0  0  0  0  0  0
    5.4641   -2.3100    0.0000 O   0  0  0  0  0  0  0  0  0  0  0  0
    3.7320    0.6900    0.0000 O   0  0  0  0  0  0  0  0  0  0  0  0
    7.1962    3.6900    0.0000 O   0  0  0  0  0  0  0  0  0  0  0  0
    5.4641    3.6900    0.0000 O   0  0  0  0  0  0  0  0  0  0  0  0
    3.7320   -2.3100    0.0000 C   0  0  0  0  0  0  0  0  0  0  0  0
    3.7320   -1.3100    0.0000 C   0  0  0  0  0  0  0  0  0  0  0  0
    3.7320   -4.3100    0.0000 C   0  0  0  0  0  0  0  0  0  0  0  0
    2.8660   -3.8100    0.0000 C   0  0  0  0  0  0  0  0  0  0  0  0
    4.5981   -3.8100    0.0000 C   0  0  0  0  0  0  0  0  0  0  0  0
    2.8660   -2.8100    0.0000 C   0  0  0  0  0  0  0  0  0  0  0  0
    4.5981   -2.8100    0.0000 C   0  0  0  0  0  0  0  0  0  0  0  0
    4.5981   -0.8100    0.0000 C   0  0  0  0  0  0  0  0  0  0  0  0
    4.5981    0.1900    0.0000 C   0  0  0  0  0  0  0  0  0  0  0  0
    5.4641    0.6900    0.0000 C   0  0  0  0  0  0  0  0  0  0  0  0
    5.4641    1.6900    0.0000 C   0  0  0  0  0  0  0  0  0  0  0  0
    6.3301    2.1900    0.0000 C   0  0  0  0  0  0  0  0  0  0  0  0
    6.3301    3.1900    0.0000 C   0  0  0  0  0  0  0  0  0  0  0  0
    4.2690   -2.0000    0.0000 H   0  0  0  0  0  0  0  0  0  0  0  0
    3.5200   -0.7274    0.0000 H   0  0  0  0  0  0  0  0  0  0  0  0
    3.1215   -1.4177    0.0000 H   0  0  0  0  0  0  0  0  0  0  0  0
    3.3335   -4.7850    0.0000 H   0  0  0  0  0  0  0  0  0  0  0  0
    4.1306   -4.7850    0.0000 H   0  0  0  0  0  0  0  0  0  0  0  0
    2.2554   -3.7023    0.0000 H   0  0  0  0  0  0  0  0  0  0  0  0
    2.6540   -4.3926    0.0000 H   0  0  0  0  0  0  0  0  0  0  0  0
    4.8101   -4.3926    0.0000 H   0  0  0  0  0  0  0  0  0  0  0  0
    5.2087   -3.7023    0.0000 H   0  0  0  0  0  0  0  0  0  0  0  0
    4.8101   -1.3926    0.0000 H   0  0  0  0  0  0  0  0  0  0  0  0
    5.2087   -0.7023    0.0000 H   0  0  0  0  0  0  0  0  0  0  0  0
    5.6762    0.1074    0.0000 H   0  0  0  0  0  0  0  0  0  0  0  0
    6.0747    0.7977    0.0000 H   0  0  0  0  0  0  0  0  0  0  0  0
    5.2520    2.2726    0.0000 H   0  0  0  0  0  0  0  0  0  0  0  0
    4.8535    1.5823    0.0000 H   0  0  0  0  0  0  0  0  0  0  0  0
    6.5422    1.6074    0.0000 H   0  0  0  0  0  0  0  0  0  0  0  0
    6.9407    2.2977    0.0000 H   0  0  0  0  0  0  0  0  0  0  0  0
    7.1962    4.3100    0.0000 H   0  0  0  0  0  0  0  0  0  0  0  0
  1 11  2  0  0  0  0
  2 12  2  0  0  0  0
  3 14  2  0  0  0  0
  4 18  1  0  0  0  0
  4 36  1  0  0  0  0
  5 18  2  0  0  0  0
  6  7  1  0  0  0  0
  6 11  1  0  0  0  0
  6 12  1  0  0  0  0
  6 19  1  0  0  0  0
  7 13  1  0  0  0  0
  7 20  1  0  0  0  0
  7 21  1  0  0  0  0
  8  9  1  0  0  0  0
  8 10  1  0  0  0  0
  8 22  1  0  0  0  0
  8 23  1  0  0  0  0
  9 11  1  0  0  0  0
  9 24  1  0  0  0  0
  9 25  1  0  0  0  0
 10 12  1  0  0  0  0
 10 26  1  0  0  0  0
 10 27  1  0  0  0  0
 13 14  1  0  0  0  0
 13 28  1  0  0  0  0
 13 29  1  0  0  0  0
 14 15  1  0  0  0  0
 15 16  1  0  0  0  0
 15 30  1  0  0  0  0
 15 31  1  0  0  0  0
 16 17  1  0  0  0  0
 16 32  1  0  0  0  0
 16 33  1  0  0  0  0
 17 18  1  0  0  0  0
 17 34  1  0  0  0  0
 17 35  1  0  0  0  0
M  END
> <PUBCHEM_COMPOUND_CID>
129878680

> <PUBCHEM_COMPOUND_CANONICALIZED>
1

> <PUBCHEM_CACTVS_COMPLEXITY>
342

> <PUBCHEM_CACTVS_HBOND_ACCEPTOR>
5

> <PUBCHEM_CACTVS_HBOND_DONOR>
1

> <PUBCHEM_CACTVS_ROTATABLE_BOND>
7

> <PUBCHEM_CACTVS_SUBSKEYS>
AAADceBwOAAAAAAAAAAAAAAAAAAAAAAAAAAwAAAAAAAAAAAAAAAAGgAACAAADQSAgAAACAAAAgAIAICQCAAAAAAAAAAAAAEAAAAAABIIAAAAQAAEAAAAAAGIzuCuAAAAAAAAAAAAAAAAAAAAAAAAAAAAAA==

> <PUBCHEM_IUPAC_OPENEYE_NAME>
7-(2,6-dioxocyclohexyl)-5-oxo-heptanoic acid

> <PUBCHEM_IUPAC_CAS_NAME>
7-(2,6-dioxocyclohexyl)-5-oxoheptanoic acid

> <PUBCHEM_IUPAC_NAME_MARKUP>
7-(2,6-dioxocyclohexyl)-5-oxoheptanoic acid

> <PUBCHEM_IUPAC_NAME>
7-(2,6-dioxocyclohexyl)-5-oxoheptanoic acid

> <PUBCHEM_IUPAC_SYSTEMATIC_NAME>
7-[2,6-bis(oxidanylidene)cyclohexyl]-5-oxidanylidene-heptanoic acid

> <PUBCHEM_IUPAC_TRADITIONAL_NAME>
7-(2,6-diketocyclohexyl)-5-keto-enanthic acid

> <PUBCHEM_IUPAC_INCHI>
InChI=1S/C13H18O5/c14-9(3-1-6-13(17)18)7-8-10-11(15)4-2-5-12(10)16/h10H,1-8H2,(H,17,18)

> <PUBCHEM_IUPAC_INCHIKEY>
KYAKQSOTIKHUJL-UHFFFAOYSA-N

> <PUBCHEM_XLOGP3_AA>
-0.2

> <PUBCHEM_EXACT_MASS>
254.11542367

> <PUBCHEM_MOLECULAR_FORMULA>
C13H18O5

> <PUBCHEM_MOLECULAR_WEIGHT>
254.28

> <PUBCHEM_OPENEYE_CAN_SMILES>
C1CC(=O)C(C(=O)C1)CCC(=O)CCCC(=O)O

> <PUBCHEM_OPENEYE_ISO_SMILES>
C1CC(=O)C(C(=O)C1)CCC(=O)CCCC(=O)O

> <PUBCHEM_CACTVS_TPSA>
88.5

> <PUBCHEM_MONOISOTOPIC_WEIGHT>
254.11542367

> <PUBCHEM_TOTAL_CHARGE>
0

> <PUBCHEM_HEAVY_ATOM_COUNT>
18

> <PUBCHEM_ATOM_DEF_STEREO_COUNT>
0

> <PUBCHEM_ATOM_UDEF_STEREO_COUNT>
0

> <PUBCHEM_BOND_DEF_STEREO_COUNT>
0

> <PUBCHEM_BOND_UDEF_STEREO_COUNT>
0

> <PUBCHEM_ISOTOPIC_ATOM_COUNT>
0

> <PUBCHEM_COMPONENT_COUNT>
1

> <PUBCHEM_CACTVS_TAUTO_COUNT>
-1

> <PUBCHEM_COORDINATE_TYPE>
1
5
255

$$$$
