 
  -OEChem-10192103342D

 38 39  0     1  0  0  0  0  0999 V2000
    6.9939    0.2500    0.0000 S   0  0  0  0  0  0  0  0  0  0  0  0
    3.7320   -0.2500    0.0000 O   0  0  0  0  0  0  0  0  0  0  0  0
    6.4103    1.0547    0.0000 O   0  0  0  0  0  0  0  0  0  0  0  0
    6.4103   -0.5547    0.0000 O   0  0  0  0  0  0  0  0  0  0  0  0
    4.5981    2.2500    0.0000 O   0  0  0  0  0  0  0  0  0  0  0  0
    2.8660    1.2500    0.0000 O   0  0  0  0  0  0  0  0  0  0  0  0
    3.7320   -2.2500    0.0000 O   0  0  0  0  0  0  0  0  0  0  0  0
    7.8030   -0.3378    0.0000 O   0  0  0  0  0  0  0  0  0  0  0  0
    7.8030    0.8378    0.0000 O   0  0  0  0  0  0  0  0  0  0  0  0
    2.8660    2.2500    0.0000 O   0  0  0  0  0  0  0  0  0  0  0  0
    4.5981   -3.7500    0.0000 O   0  0  0  0  0  0  0  0  0  0  0  0
    5.4641    0.7500    0.0000 C   0  0  1  0  0  0  0  0  0  0  0  0
    5.4641   -0.2500    0.0000 C   0  0  2  0  0  0  0  0  0  0  0  0
    4.5981    1.2500    0.0000 C   0  0  2  0  0  0  0  0  0  0  0  0
    4.5981   -0.7500    0.0000 C   0  0  1  0  0  0  0  0  0  0  0  0
    3.7320    0.7500    0.0000 C   0  0  1  0  0  0  0  0  0  0  0  0
    4.5981   -1.7500    0.0000 C   0  0  0  0  0  0  0  0  0  0  0  0
    3.7320    2.7500    0.0000 C   0  0  0  0  0  0  0  0  0  0  0  0
    2.0000    0.7500    0.0000 C   0  0  0  0  0  0  0  0  0  0  0  0
    3.7320   -3.2500    0.0000 C   0  0  0  0  0  0  0  0  0  0  0  0
    3.7320    3.7500    0.0000 C   0  0  0  0  0  0  0  0  0  0  0  0
    2.8660   -3.7500    0.0000 C   0  0  0  0  0  0  0  0  0  0  0  0
    5.5540    1.5952    0.0000 H   0  0  0  0  0  0  0  0  0  0  0  0
    5.5540   -1.0952    0.0000 H   0  0  0  0  0  0  0  0  0  0  0  0
    5.1350    1.5600    0.0000 H   0  0  0  0  0  0  0  0  0  0  0  0
    4.0611   -1.0600    0.0000 H   0  0  0  0  0  0  0  0  0  0  0  0
    3.7320    1.3700    0.0000 H   0  0  0  0  0  0  0  0  0  0  0  0
    4.8101   -2.3326    0.0000 H   0  0  0  0  0  0  0  0  0  0  0  0
    5.2087   -1.6423    0.0000 H   0  0  0  0  0  0  0  0  0  0  0  0
    1.6900    1.2869    0.0000 H   0  0  0  0  0  0  0  0  0  0  0  0
    1.4631    0.4400    0.0000 H   0  0  0  0  0  0  0  0  0  0  0  0
    2.3100    0.2131    0.0000 H   0  0  0  0  0  0  0  0  0  0  0  0
    4.3520    3.7500    0.0000 H   0  0  0  0  0  0  0  0  0  0  0  0
    3.7320    4.3700    0.0000 H   0  0  0  0  0  0  0  0  0  0  0  0
    3.1120    3.7500    0.0000 H   0  0  0  0  0  0  0  0  0  0  0  0
    2.5560   -3.2131    0.0000 H   0  0  0  0  0  0  0  0  0  0  0  0
    2.3291   -4.0600    0.0000 H   0  0  0  0  0  0  0  0  0  0  0  0
    3.1760   -4.2869    0.0000 H   0  0  0  0  0  0  0  0  0  0  0  0
  1  3  1  0  0  0  0
  1  4  1  0  0  0  0
  1  8  2  0  0  0  0
  1  9  2  0  0  0  0
  2 15  1  0  0  0  0
  2 16  1  0  0  0  0
  3 12  1  0  0  0  0
  4 13  1  0  0  0  0
 14  5  1  6  0  0  0
  5 18  1  0  0  0  0
 16  6  1  1  0  0  0
  6 19  1  0  0  0  0
  7 17  1  0  0  0  0
  7 20  1  0  0  0  0
 10 18  2  0  0  0  0
 11 20  2  0  0  0  0
 12 13  1  0  0  0  0
 12 14  1  0  0  0  0
 12 23  1  6  0  0  0
 13 15  1  0  0  0  0
 13 24  1  6  0  0  0
 14 16  1  0  0  0  0
 14 25  1  0  0  0  0
 15 17  1  1  0  0  0
 15 26  1  0  0  0  0
 16 27  1  0  0  0  0
 17 28  1  0  0  0  0
 17 29  1  0  0  0  0
 18 21  1  0  0  0  0
 19 30  1  0  0  0  0
 19 31  1  0  0  0  0
 19 32  1  0  0  0  0
 20 22  1  0  0  0  0
 21 33  1  0  0  0  0
 21 34  1  0  0  0  0
 21 35  1  0  0  0  0
 22 36  1  0  0  0  0
 22 37  1  0  0  0  0
 22 38  1  0  0  0  0
M  END
> <PUBCHEM_COMPOUND_CID>
10640866

> <PUBCHEM_COMPOUND_CANONICALIZED>
1

> <PUBCHEM_CACTVS_COMPLEXITY>
538

> <PUBCHEM_CACTVS_HBOND_ACCEPTOR>
10

> <PUBCHEM_CACTVS_HBOND_DONOR>
0

> <PUBCHEM_CACTVS_ROTATABLE_BOND>
6

> <PUBCHEM_CACTVS_SUBSKEYS>
AAADceBwPABAAAAAAAAAAAAAAAAAASAAAAAkAAAAAAAAAEgAAAAAGgAAAAAACBSwgAMCCAAABAAIAACQCDAAAAAAAAAAAAAAAAARAAIAAAAiAAAFAAAGAAHAYAwAAAAAAAAAAAAAAAAAAAAAAAAAAAAAAA==

> <PUBCHEM_IUPAC_OPENEYE_NAME>
[(3aS,4R,6R,7R,7aR)-7-acetoxy-6-methoxy-2,2-dioxo-4,6,7,7a-tetrahydro-3aH-[1,3,2]dioxathiolo[4,5-c]pyran-4-yl]methyl acetate

> <PUBCHEM_IUPAC_CAS_NAME>
acetic acid [(3aS,4R,6R,7R,7aR)-7-acetyloxy-6-methoxy-2,2-dioxo-4,6,7,7a-tetrahydro-3aH-[1,3,2]dioxathiolo[4,5-c]pyran-4-yl]methyl ester

> <PUBCHEM_IUPAC_NAME_MARKUP>
[(3<I>a</I><I>S</I>,4<I>R</I>,6<I>R</I>,7<I>R</I>,7<I>a</I><I>R</I>)-7-acetyloxy-6-methoxy-2,2-dioxo-4,6,7,7<I>a</I>-tetrahydro-3<I>a</I><I>H</I>-[1,3,2]dioxathiolo[4,5-c]pyran-4-yl]methyl acetate

> <PUBCHEM_IUPAC_NAME>
[(3aS,4R,6R,7R,7aR)-7-acetyloxy-6-methoxy-2,2-dioxo-4,6,7,7a-tetrahydro-3aH-[1,3,2]dioxathiolo[4,5-c]pyran-4-yl]methyl acetate

> <PUBCHEM_IUPAC_SYSTEMATIC_NAME>
[(3aS,4R,6R,7R,7aR)-7-acetyloxy-6-methoxy-2,2-bis(oxidanylidene)-4,6,7,7a-tetrahydro-3aH-[1,3,2]dioxathiolo[4,5-c]pyran-4-yl]methyl ethanoate

> <PUBCHEM_IUPAC_TRADITIONAL_NAME>
acetic acid [(3aS,4R,6R,7R,7aR)-7-acetoxy-2,2-diketo-6-methoxy-4,6,7,7a-tetrahydro-3aH-[1,3,2]dioxathiolo[4,5-c]pyran-4-yl]methyl ester

> <PUBCHEM_IUPAC_INCHI>
InChI=1S/C11H16O10S/c1-5(12)17-4-7-8-9(21-22(14,15)20-8)10(18-6(2)13)11(16-3)19-7/h7-11H,4H2,1-3H3/t7-,8+,9+,10-,11-/m1/s1

> <PUBCHEM_IUPAC_INCHIKEY>
DVEXOIXWBDOKNG-ZKKRXERASA-N

> <PUBCHEM_XLOGP3_AA>
-0.8

> <PUBCHEM_EXACT_MASS>
340.04641788

> <PUBCHEM_MOLECULAR_FORMULA>
C11H16O10S

> <PUBCHEM_MOLECULAR_WEIGHT>
340.31

> <PUBCHEM_OPENEYE_CAN_SMILES>
CC(=O)OCC1C2C(C(C(O1)OC)OC(=O)C)OS(=O)(=O)O2

> <PUBCHEM_OPENEYE_ISO_SMILES>
CC(=O)OC[C@@H]1[C@H]2[C@@H]([C@H]([C@@H](O1)OC)OC(=O)C)OS(=O)(=O)O2

> <PUBCHEM_CACTVS_TPSA>
132

> <PUBCHEM_MONOISOTOPIC_WEIGHT>
340.04641788

> <PUBCHEM_TOTAL_CHARGE>
0

> <PUBCHEM_HEAVY_ATOM_COUNT>
22

> <PUBCHEM_ATOM_DEF_STEREO_COUNT>
5

> <PUBCHEM_ATOM_UDEF_STEREO_COUNT>
0

> <PUBCHEM_BOND_DEF_STEREO_COUNT>
0

> <PUBCHEM_BOND_UDEF_STEREO_COUNT>
0

> <PUBCHEM_ISOTOPIC_ATOM_COUNT>
0

> <PUBCHEM_COMPONENT_COUNT>
1

> <PUBCHEM_CACTVS_TAUTO_COUNT>
-1

> <PUBCHEM_COORDINATE_TYPE>
1
5
255

> <PUBCHEM_BONDANNOTATIONS>
12  23  6
13  24  6
15  17  5
14  5  6
16  6  5

$$$$
