 
  -OEChem-10192104242D

 53 52  0     0  0  0  0  0  0999 V2000
    6.0010    4.4947    0.0000 O   0  0  0  0  0  0  0  0  0  0  0  0
    2.5369    4.4947    0.0000 O   0  0  0  0  0  0  0  0  0  0  0  0
    4.2690    6.2267    0.0000 O   0  0  0  0  0  0  0  0  0  0  0  0
    5.1350    5.9947    0.0000 O   0  0  0  0  0  0  0  0  0  0  0  0
    3.4030    2.9947    0.0000 O   0  0  0  0  0  0  0  0  0  0  0  0
    2.7690    5.3607    0.0000 O   0  0  0  0  0  0  0  0  0  0  0  0
    4.7690    0.1645    0.0000 C   0  0  0  0  0  0  0  0  0  0  0  0
    4.2690    1.0306    0.0000 C   0  0  0  0  0  0  0  0  0  0  0  0
    4.2690   -0.7015    0.0000 C   0  0  0  0  0  0  0  0  0  0  0  0
    4.7690    1.8966    0.0000 C   0  0  0  0  0  0  0  0  0  0  0  0
    4.7690   -1.5675    0.0000 C   0  0  0  0  0  0  0  0  0  0  0  0
    4.2690    2.7626    0.0000 C   0  0  0  0  0  0  0  0  0  0  0  0
    4.2690   -2.4335    0.0000 C   0  0  0  0  0  0  0  0  0  0  0  0
    4.7690    3.6286    0.0000 C   0  0  0  0  0  0  0  0  0  0  0  0
    4.7690   -3.2996    0.0000 C   0  0  0  0  0  0  0  0  0  0  0  0
    4.2690    4.4947    0.0000 C   0  0  0  0  0  0  0  0  0  0  0  0
    4.2690   -4.1656    0.0000 C   0  0  0  0  0  0  0  0  0  0  0  0
    4.7690   -5.0316    0.0000 C   0  0  0  0  0  0  0  0  0  0  0  0
    4.2690   -5.8976    0.0000 C   0  0  0  0  0  0  0  0  0  0  0  0
    5.1350    4.9947    0.0000 C   0  0  0  0  0  0  0  0  0  0  0  0
    3.4030    3.9947    0.0000 C   0  0  0  0  0  0  0  0  0  0  0  0
    3.7690    5.3607    0.0000 C   0  0  0  0  0  0  0  0  0  0  0  0
    4.7690   -6.7637    0.0000 C   0  0  0  0  0  0  0  0  0  0  0  0
    5.2439   -0.2340    0.0000 H   0  0  0  0  0  0  0  0  0  0  0  0
    5.2439    0.5631    0.0000 H   0  0  0  0  0  0  0  0  0  0  0  0
    3.7940    1.4291    0.0000 H   0  0  0  0  0  0  0  0  0  0  0  0
    3.7940    0.6320    0.0000 H   0  0  0  0  0  0  0  0  0  0  0  0
    3.7940   -0.3030    0.0000 H   0  0  0  0  0  0  0  0  0  0  0  0
    3.7940   -1.1000    0.0000 H   0  0  0  0  0  0  0  0  0  0  0  0
    5.2439    1.4981    0.0000 H   0  0  0  0  0  0  0  0  0  0  0  0
    5.2439    2.2951    0.0000 H   0  0  0  0  0  0  0  0  0  0  0  0
    5.2439   -1.9660    0.0000 H   0  0  0  0  0  0  0  0  0  0  0  0
    5.2439   -1.1690    0.0000 H   0  0  0  0  0  0  0  0  0  0  0  0
    3.7940    3.1612    0.0000 H   0  0  0  0  0  0  0  0  0  0  0  0
    3.7940    2.3641    0.0000 H   0  0  0  0  0  0  0  0  0  0  0  0
    3.7940   -2.0350    0.0000 H   0  0  0  0  0  0  0  0  0  0  0  0
    3.7940   -2.8321    0.0000 H   0  0  0  0  0  0  0  0  0  0  0  0
    5.2439    3.2301    0.0000 H   0  0  0  0  0  0  0  0  0  0  0  0
    5.2439    4.0272    0.0000 H   0  0  0  0  0  0  0  0  0  0  0  0
    5.2439   -3.6981    0.0000 H   0  0  0  0  0  0  0  0  0  0  0  0
    5.2439   -2.9010    0.0000 H   0  0  0  0  0  0  0  0  0  0  0  0
    3.7940   -3.7670    0.0000 H   0  0  0  0  0  0  0  0  0  0  0  0
    3.7940   -4.5641    0.0000 H   0  0  0  0  0  0  0  0  0  0  0  0
    5.2439   -5.4301    0.0000 H   0  0  0  0  0  0  0  0  0  0  0  0
    5.2439   -4.6331    0.0000 H   0  0  0  0  0  0  0  0  0  0  0  0
    3.7940   -5.4991    0.0000 H   0  0  0  0  0  0  0  0  0  0  0  0
    3.7940   -6.2962    0.0000 H   0  0  0  0  0  0  0  0  0  0  0  0
    4.2320   -7.0737    0.0000 H   0  0  0  0  0  0  0  0  0  0  0  0
    5.0790   -7.3006    0.0000 H   0  0  0  0  0  0  0  0  0  0  0  0
    5.3059   -6.4537    0.0000 H   0  0  0  0  0  0  0  0  0  0  0  0
    6.5380    4.8047    0.0000 H   0  0  0  0  0  0  0  0  0  0  0  0
    2.0000    4.1847    0.0000 H   0  0  0  0  0  0  0  0  0  0  0  0
    3.9590    6.7637    0.0000 H   0  0  0  0  0  0  0  0  0  0  0  0
  1 20  1  0  0  0  0
  1 51  1  0  0  0  0
  2 21  1  0  0  0  0
  2 52  1  0  0  0  0
  3 22  1  0  0  0  0
  3 53  1  0  0  0  0
  4 20  2  0  0  0  0
  5 21  2  0  0  0  0
  6 22  2  0  0  0  0
  7  8  1  0  0  0  0
  7  9  1  0  0  0  0
  7 24  1  0  0  0  0
  7 25  1  0  0  0  0
  8 10  1  0  0  0  0
  8 26  1  0  0  0  0
  8 27  1  0  0  0  0
  9 11  1  0  0  0  0
  9 28  1  0  0  0  0
  9 29  1  0  0  0  0
 10 12  1  0  0  0  0
 10 30  1  0  0  0  0
 10 31  1  0  0  0  0
 11 13  1  0  0  0  0
 11 32  1  0  0  0  0
 11 33  1  0  0  0  0
 12 14  1  0  0  0  0
 12 34  1  0  0  0  0
 12 35  1  0  0  0  0
 13 15  1  0  0  0  0
 13 36  1  0  0  0  0
 13 37  1  0  0  0  0
 14 16  1  0  0  0  0
 14 38  1  0  0  0  0
 14 39  1  0  0  0  0
 15 17  1  0  0  0  0
 15 40  1  0  0  0  0
 15 41  1  0  0  0  0
 16 20  1  0  0  0  0
 16 21  1  0  0  0  0
 16 22  1  0  0  0  0
 17 18  1  0  0  0  0
 17 42  1  0  0  0  0
 17 43  1  0  0  0  0
 18 19  1  0  0  0  0
 18 44  1  0  0  0  0
 18 45  1  0  0  0  0
 19 23  1  0  0  0  0
 19 46  1  0  0  0  0
 19 47  1  0  0  0  0
 23 48  1  0  0  0  0
 23 49  1  0  0  0  0
 23 50  1  0  0  0  0
M  END
> <PUBCHEM_COMPOUND_CID>
87483643

> <PUBCHEM_COMPOUND_CANONICALIZED>
1

> <PUBCHEM_CACTVS_COMPLEXITY>
341

> <PUBCHEM_CACTVS_HBOND_ACCEPTOR>
6

> <PUBCHEM_CACTVS_HBOND_DONOR>
3

> <PUBCHEM_CACTVS_ROTATABLE_BOND>
15

> <PUBCHEM_CACTVS_SUBSKEYS>
AAADceB4OAAAAAAAAAAAAAAAAAAAAAAAAAAAAAAAAAAAAAAAAAAAGgAACAAADgCAgAACCAAAAgAIAACQCAAAAAAAAAAAAAEAAAAAABYIAAAAQAAFIAAAAAGIyOCNAAAAAAAAAAAAAAAAAAAAAAAAAAAAAA==

> <PUBCHEM_IUPAC_OPENEYE_NAME>
tetradecane-1,1,1-tricarboxylic acid

> <PUBCHEM_IUPAC_CAS_NAME>
tetradecane-1,1,1-tricarboxylic acid

> <PUBCHEM_IUPAC_NAME_MARKUP>
tetradecane-1,1,1-tricarboxylic acid

> <PUBCHEM_IUPAC_NAME>
tetradecane-1,1,1-tricarboxylic acid

> <PUBCHEM_IUPAC_SYSTEMATIC_NAME>
tetradecane-1,1,1-tricarboxylic acid

> <PUBCHEM_IUPAC_TRADITIONAL_NAME>
tetradecane-1,1,1-tricarboxylic acid

> <PUBCHEM_IUPAC_INCHI>
InChI=1S/C17H30O6/c1-2-3-4-5-6-7-8-9-10-11-12-13-17(14(18)19,15(20)21)16(22)23/h2-13H2,1H3,(H,18,19)(H,20,21)(H,22,23)

> <PUBCHEM_IUPAC_INCHIKEY>
SSSSOCIXRPKZPG-UHFFFAOYSA-N

> <PUBCHEM_XLOGP3_AA>
6

> <PUBCHEM_EXACT_MASS>
330.20423867

> <PUBCHEM_MOLECULAR_FORMULA>
C17H30O6

> <PUBCHEM_MOLECULAR_WEIGHT>
330.4

> <PUBCHEM_OPENEYE_CAN_SMILES>
CCCCCCCCCCCCCC(C(=O)O)(C(=O)O)C(=O)O

> <PUBCHEM_OPENEYE_ISO_SMILES>
CCCCCCCCCCCCCC(C(=O)O)(C(=O)O)C(=O)O

> <PUBCHEM_CACTVS_TPSA>
112

> <PUBCHEM_MONOISOTOPIC_WEIGHT>
330.20423867

> <PUBCHEM_TOTAL_CHARGE>
0

> <PUBCHEM_HEAVY_ATOM_COUNT>
23

> <PUBCHEM_ATOM_DEF_STEREO_COUNT>
0

> <PUBCHEM_ATOM_UDEF_STEREO_COUNT>
0

> <PUBCHEM_BOND_DEF_STEREO_COUNT>
0

> <PUBCHEM_BOND_UDEF_STEREO_COUNT>
0

> <PUBCHEM_ISOTOPIC_ATOM_COUNT>
0

> <PUBCHEM_COMPONENT_COUNT>
1

> <PUBCHEM_CACTVS_TAUTO_COUNT>
-1

> <PUBCHEM_COORDINATE_TYPE>
1
5
255

$$$$
