 
  -OEChem-10192104082D

 40 40  0     1  0  0  0  0  0999 V2000
    7.3660    1.2348    0.0000 O   0  0  0  0  0  0  0  0  0  0  0  0
    7.5718    0.0680    0.0000 O   0  0  0  0  0  0  0  0  0  0  0  0
    3.5000   -0.9972    0.0000 O   0  0  0  0  0  0  0  0  0  0  0  0
    5.8660    2.1008    0.0000 O   0  0  0  0  0  0  0  0  0  0  0  0
    6.4585   -1.2588    0.0000 O   0  0  0  0  0  0  0  0  0  0  0  0
    3.5000    0.7348    0.0000 O   0  0  0  0  0  0  0  0  0  0  0  0
    5.3473   -2.1008    0.0000 N   0  0  0  0  0  0  0  0  0  0  0  0
    5.8660    0.3688    0.0000 C   0  0  0  0  0  0  0  0  0  0  0  0
    5.0000    0.8688    0.0000 C   0  0  3  0  0  0  0  0  0  0  0  0
    5.0000   -0.1312    0.0000 C   0  0  3  0  0  0  0  0  0  0  0  0
    4.5000    1.7348    0.0000 C   0  0  0  0  0  0  0  0  0  0  0  0
    6.3660    1.2348    0.0000 C   0  0  0  0  0  0  0  0  0  0  0  0
    6.6321   -0.2740    0.0000 C   0  0  0  0  0  0  0  0  0  0  0  0
    4.0000   -0.1312    0.0000 C   0  0  0  0  0  0  0  0  0  0  0  0
    5.1736   -1.1160    0.0000 C   0  0  0  0  0  0  0  0  0  0  0  0
    7.8660    2.1008    0.0000 C   0  0  0  0  0  0  0  0  0  0  0  0
    8.3378   -0.5748    0.0000 C   0  0  0  0  0  0  0  0  0  0  0  0
    2.5000   -0.9972    0.0000 C   0  0  0  0  0  0  0  0  0  0  0  0
    8.8660    2.1008    0.0000 C   0  0  0  0  0  0  0  0  0  0  0  0
    9.2775   -0.2328    0.0000 C   0  0  0  0  0  0  0  0  0  0  0  0
    2.0000   -1.8633    0.0000 C   0  0  0  0  0  0  0  0  0  0  0  0
    4.4011    0.7083    0.0000 H   0  0  0  0  0  0  0  0  0  0  0  0
    5.0369    2.0448    0.0000 H   0  0  0  0  0  0  0  0  0  0  0  0
    4.1900    2.2717    0.0000 H   0  0  0  0  0  0  0  0  0  0  0  0
    3.9631    1.4248    0.0000 H   0  0  0  0  0  0  0  0  0  0  0  0
    7.9737    2.7114    0.0000 H   0  0  0  0  0  0  0  0  0  0  0  0
    7.2834    2.3129    0.0000 H   0  0  0  0  0  0  0  0  0  0  0  0
    7.8629   -0.9733    0.0000 H   0  0  0  0  0  0  0  0  0  0  0  0
    8.6478   -1.1117    0.0000 H   0  0  0  0  0  0  0  0  0  0  0  0
    2.6077   -0.3867    0.0000 H   0  0  0  0  0  0  0  0  0  0  0  0
    1.9174   -0.7852    0.0000 H   0  0  0  0  0  0  0  0  0  0  0  0
    8.8660    1.4808    0.0000 H   0  0  0  0  0  0  0  0  0  0  0  0
    9.4860    2.1008    0.0000 H   0  0  0  0  0  0  0  0  0  0  0  0
    8.8660    2.7208    0.0000 H   0  0  0  0  0  0  0  0  0  0  0  0
    9.4896   -0.8154    0.0000 H   0  0  0  0  0  0  0  0  0  0  0  0
    9.8601   -0.0207    0.0000 H   0  0  0  0  0  0  0  0  0  0  0  0
    9.0654    0.3499    0.0000 H   0  0  0  0  0  0  0  0  0  0  0  0
    1.4631   -1.5533    0.0000 H   0  0  0  0  0  0  0  0  0  0  0  0
    1.6900   -2.4002    0.0000 H   0  0  0  0  0  0  0  0  0  0  0  0
    2.5369   -2.1733    0.0000 H   0  0  0  0  0  0  0  0  0  0  0  0
  1 12  1  0  0  0  0
  1 16  1  0  0  0  0
  2 13  1  0  0  0  0
  2 17  1  0  0  0  0
  3 14  1  0  0  0  0
  3 18  1  0  0  0  0
  4 12  2  0  0  0  0
  5 13  2  0  0  0  0
  6 14  2  0  0  0  0
  7 15  3  0  0  0  0
  8  9  1  0  0  0  0
  8 10  1  0  0  0  0
  8 12  1  0  0  0  0
  8 13  1  0  0  0  0
  9 10  1  0  0  0  0
  9 11  1  0  0  0  0
  9 22  1  0  0  0  0
 10 14  1  0  0  0  0
 10 15  1  0  0  0  0
 11 23  1  0  0  0  0
 11 24  1  0  0  0  0
 11 25  1  0  0  0  0
 16 19  1  0  0  0  0
 16 26  1  0  0  0  0
 16 27  1  0  0  0  0
 17 20  1  0  0  0  0
 17 28  1  0  0  0  0
 17 29  1  0  0  0  0
 18 21  1  0  0  0  0
 18 30  1  0  0  0  0
 18 31  1  0  0  0  0
 19 32  1  0  0  0  0
 19 33  1  0  0  0  0
 19 34  1  0  0  0  0
 20 35  1  0  0  0  0
 20 36  1  0  0  0  0
 20 37  1  0  0  0  0
 21 38  1  0  0  0  0
 21 39  1  0  0  0  0
 21 40  1  0  0  0  0
M  END
> <PUBCHEM_COMPOUND_CID>
12613413

> <PUBCHEM_COMPOUND_CANONICALIZED>
1

> <PUBCHEM_CACTVS_COMPLEXITY>
487

> <PUBCHEM_CACTVS_HBOND_ACCEPTOR>
7

> <PUBCHEM_CACTVS_HBOND_DONOR>
0

> <PUBCHEM_CACTVS_ROTATABLE_BOND>
9

> <PUBCHEM_CACTVS_SUBSKEYS>
AAADceByOAAAAAAAAAAAAAAAGAAAAAAAAAAAAAAAAAAAAAAAAAAAHgAAAAAADwChgAICCAAABAAYBACQCAAAAAAAAAAAAAEAAAAAgBYIAAACAAAFIAAAAAjLJggPgAAAAAAAAAAAAAAAAAAAAAAAAAAAAA==

> <PUBCHEM_IUPAC_OPENEYE_NAME>
triethyl 2-cyano-3-methyl-cyclopropane-1,1,2-tricarboxylate

> <PUBCHEM_IUPAC_CAS_NAME>
2-cyano-3-methylcyclopropane-1,1,2-tricarboxylic acid triethyl ester

> <PUBCHEM_IUPAC_NAME_MARKUP>
triethyl 2-cyano-3-methylcyclopropane-1,1,2-tricarboxylate

> <PUBCHEM_IUPAC_NAME>
triethyl 2-cyano-3-methylcyclopropane-1,1,2-tricarboxylate

> <PUBCHEM_IUPAC_SYSTEMATIC_NAME>
triethyl 2-cyano-3-methyl-cyclopropane-1,1,2-tricarboxylate

> <PUBCHEM_IUPAC_TRADITIONAL_NAME>
2-cyano-3-methyl-cyclopropane-1,1,2-tricarboxylic acid triethyl ester

> <PUBCHEM_IUPAC_INCHI>
InChI=1S/C14H19NO6/c1-5-19-10(16)13(8-15)9(4)14(13,11(17)20-6-2)12(18)21-7-3/h9H,5-7H2,1-4H3

> <PUBCHEM_IUPAC_INCHIKEY>
OBMIFERXQDNPDH-UHFFFAOYSA-N

> <PUBCHEM_XLOGP3_AA>
1.3

> <PUBCHEM_EXACT_MASS>
297.12123733

> <PUBCHEM_MOLECULAR_FORMULA>
C14H19NO6

> <PUBCHEM_MOLECULAR_WEIGHT>
297.30

> <PUBCHEM_OPENEYE_CAN_SMILES>
CCOC(=O)C1(C(C1(C(=O)OCC)C(=O)OCC)C)C#N

> <PUBCHEM_OPENEYE_ISO_SMILES>
CCOC(=O)C1(C(C1(C(=O)OCC)C(=O)OCC)C)C#N

> <PUBCHEM_CACTVS_TPSA>
103

> <PUBCHEM_MONOISOTOPIC_WEIGHT>
297.12123733

> <PUBCHEM_TOTAL_CHARGE>
0

> <PUBCHEM_HEAVY_ATOM_COUNT>
21

> <PUBCHEM_ATOM_DEF_STEREO_COUNT>
0

> <PUBCHEM_ATOM_UDEF_STEREO_COUNT>
2

> <PUBCHEM_BOND_DEF_STEREO_COUNT>
0

> <PUBCHEM_BOND_UDEF_STEREO_COUNT>
0

> <PUBCHEM_ISOTOPIC_ATOM_COUNT>
0

> <PUBCHEM_COMPONENT_COUNT>
1

> <PUBCHEM_CACTVS_TAUTO_COUNT>
-1

> <PUBCHEM_COORDINATE_TYPE>
1
5
255

> <PUBCHEM_BONDANNOTATIONS>
10  15  3
9  11  3

$$$$
