 
  -OEChem-10192103522D

 87100  0     1  0  0  0  0  0999 V2000
   11.4266    3.1031    0.0000 O   0  0  0  0  0  0  0  0  0  0  0  0
    7.9617    2.9897    0.0000 O   0  0  0  0  0  0  0  0  0  0  0  0
   11.6188   -2.7437    0.0000 O   0  0  0  0  0  0  0  0  0  0  0  0
    8.6024   -2.8883    0.0000 O   0  0  0  0  0  0  0  0  0  0  0  0
   13.6237   -3.4045    0.0000 O   0  0  0  0  0  0  0  0  0  0  0  0
    6.7838   -4.1296    0.0000 O   0  0  0  0  0  0  0  0  0  0  0  0
    9.7361    2.3349    0.0000 C   0  0  0  0  0  0  0  0  0  0  0  0
    9.2583    4.2834    0.0000 C   0  0  0  0  0  0  0  0  0  0  0  0
   11.0078    1.5402    0.0000 C   0  0  0  0  0  0  0  0  0  0  0  0
    8.5151    1.4692    0.0000 C   0  0  0  0  0  0  0  0  0  0  0  0
   13.3636   -1.3307    0.0000 C   0  0  3  0  0  0  0  0  0  0  0  0
    6.2637   -1.3107    0.0000 C   0  0  3  0  0  0  0  0  0  0  0  0
    9.9949    3.3008    0.0000 C   0  0  0  0  0  0  0  0  0  0  0  0
   12.3024   -0.9420    0.0000 C   0  0  0  0  0  0  0  0  0  0  0  0
    7.4418   -1.1164    0.0000 C   0  0  0  0  0  0  0  0  0  0  0  0
   11.1549    0.5090    0.0000 C   0  0  0  0  0  0  0  0  0  0  0  0
    8.4585    0.4291    0.0000 C   0  0  0  0  0  0  0  0  0  0  0  0
   12.1244    0.1283    0.0000 C   0  0  0  0  0  0  0  0  0  0  0  0
    7.5258   -0.0347    0.0000 C   0  0  0  0  0  0  0  0  0  0  0  0
   13.5490   -2.4456    0.0000 C   0  0  0  0  0  0  0  0  0  0  0  0
    6.1703   -2.3745    0.0000 C   0  0  0  0  0  0  0  0  0  0  0  0
   11.7850    2.1696    0.0000 C   0  0  0  0  0  0  0  0  0  0  0  0
    7.6861    2.0284    0.0000 C   0  0  0  0  0  0  0  0  0  0  0  0
   12.6707   -3.1568    0.0000 C   0  0  3  0  0  0  0  0  0  0  0  0
    7.9537   -3.8906    0.0000 C   0  0  3  0  0  0  0  0  0  0  0  0
   14.2410   -1.7776    0.0000 C   0  0  0  0  0  0  0  0  0  0  0  0
    5.5773   -2.2878    0.0000 C   0  0  0  0  0  0  0  0  0  0  0  0
   11.4592   -1.6248    0.0000 C   0  0  0  0  0  0  0  0  0  0  0  0
    8.3413   -1.7232    0.0000 C   0  0  0  0  0  0  0  0  0  0  0  0
   12.9339    0.7838    0.0000 C   0  0  0  0  0  0  0  0  0  0  0  0
    6.6622    0.5478    0.0000 C   0  0  0  0  0  0  0  0  0  0  0  0
   10.2961   -0.1541    0.0000 C   0  0  0  0  0  0  0  0  0  0  0  0
    9.3718   -0.1566    0.0000 C   0  0  0  0  0  0  0  0  0  0  0  0
   12.7630    1.8113    0.0000 C   0  0  0  0  0  0  0  0  0  0  0  0
    6.7429    1.5863    0.0000 C   0  0  0  0  0  0  0  0  0  0  0  0
   14.3636   -2.7547    0.0000 C   0  0  0  0  0  0  0  0  0  0  0  0
    5.7940   -3.4619    0.0000 C   0  0  0  0  0  0  0  0  0  0  0  0
   10.4493   -1.2282    0.0000 C   0  0  0  0  0  0  0  0  0  0  0  0
    9.3128   -1.2400    0.0000 C   0  0  0  0  0  0  0  0  0  0  0  0
   15.0489   -1.1457    0.0000 C   0  0  0  0  0  0  0  0  0  0  0  0
    4.4118   -1.8536    0.0000 C   0  0  0  0  0  0  0  0  0  0  0  0
   15.9972   -1.5367    0.0000 C   0  0  0  0  0  0  0  0  0  0  0  0
    3.4592   -2.6533    0.0000 C   0  0  0  0  0  0  0  0  0  0  0  0
   15.3025   -3.1675    0.0000 C   0  0  0  0  0  0  0  0  0  0  0  0
    4.8602   -4.2834    0.0000 C   0  0  0  0  0  0  0  0  0  0  0  0
   16.1248   -2.5544    0.0000 C   0  0  0  0  0  0  0  0  0  0  0  0
    3.6849   -3.8764    0.0000 C   0  0  0  0  0  0  0  0  0  0  0  0
   14.9451   -0.1874    0.0000 C   0  0  0  0  0  0  0  0  0  0  0  0
    4.2062   -0.5746    0.0000 C   0  0  0  0  0  0  0  0  0  0  0  0
   16.7462   -0.9301    0.0000 C   0  0  0  0  0  0  0  0  0  0  0  0
    2.2351   -2.2293    0.0000 C   0  0  0  0  0  0  0  0  0  0  0  0
   15.7161    0.3912    0.0000 C   0  0  0  0  0  0  0  0  0  0  0  0
    2.9922   -0.1224    0.0000 C   0  0  0  0  0  0  0  0  0  0  0  0
   16.6072    0.0237    0.0000 C   0  0  0  0  0  0  0  0  0  0  0  0
    2.0000   -0.9554    0.0000 C   0  0  0  0  0  0  0  0  0  0  0  0
   10.2384    2.6983    0.0000 H   0  0  0  0  0  0  0  0  0  0  0  0
    9.5761    4.8158    0.0000 H   0  0  0  0  0  0  0  0  0  0  0  0
    8.6452    4.3754    0.0000 H   0  0  0  0  0  0  0  0  0  0  0  0
   13.6114   -0.7624    0.0000 H   0  0  0  0  0  0  0  0  0  0  0  0
    5.9339   -0.7857    0.0000 H   0  0  0  0  0  0  0  0  0  0  0  0
    9.9995    2.6808    0.0000 H   0  0  0  0  0  0  0  0  0  0  0  0
   13.8510   -2.9871    0.0000 H   0  0  0  0  0  0  0  0  0  0  0  0
   14.1342   -2.2407    0.0000 H   0  0  0  0  0  0  0  0  0  0  0  0
    5.5768   -2.1953    0.0000 H   0  0  0  0  0  0  0  0  0  0  0  0
    5.8737   -2.9190    0.0000 H   0  0  0  0  0  0  0  0  0  0  0  0
   12.4791   -3.7465    0.0000 H   0  0  0  0  0  0  0  0  0  0  0  0
    8.3032   -4.4027    0.0000 H   0  0  0  0  0  0  0  0  0  0  0  0
   13.5136    0.5638    0.0000 H   0  0  0  0  0  0  0  0  0  0  0  0
    6.1040    0.2781    0.0000 H   0  0  0  0  0  0  0  0  0  0  0  0
    9.7217    0.0792    0.0000 H   0  0  0  0  0  0  0  0  0  0  0  0
    9.9237    0.1258    0.0000 H   0  0  0  0  0  0  0  0  0  0  0  0
   13.2403    2.2070    0.0000 H   0  0  0  0  0  0  0  0  0  0  0  0
    6.2330    1.9389    0.0000 H   0  0  0  0  0  0  0  0  0  0  0  0
    9.9630   -1.6128    0.0000 H   0  0  0  0  0  0  0  0  0  0  0  0
    9.8308   -1.5808    0.0000 H   0  0  0  0  0  0  0  0  0  0  0  0
   15.3726   -3.7835    0.0000 H   0  0  0  0  0  0  0  0  0  0  0  0
    4.9797   -4.8918    0.0000 H   0  0  0  0  0  0  0  0  0  0  0  0
   16.6952   -2.7974    0.0000 H   0  0  0  0  0  0  0  0  0  0  0  0
    3.2147   -4.2805    0.0000 H   0  0  0  0  0  0  0  0  0  0  0  0
   14.3764    0.0595    0.0000 H   0  0  0  0  0  0  0  0  0  0  0  0
    4.6857   -0.1814    0.0000 H   0  0  0  0  0  0  0  0  0  0  0  0
   17.3237   -1.1558    0.0000 H   0  0  0  0  0  0  0  0  0  0  0  0
    1.7649   -2.6334    0.0000 H   0  0  0  0  0  0  0  0  0  0  0  0
   15.6379    1.0062    0.0000 H   0  0  0  0  0  0  0  0  0  0  0  0
    2.8868    0.4886    0.0000 H   0  0  0  0  0  0  0  0  0  0  0  0
   17.0961    0.4050    0.0000 H   0  0  0  0  0  0  0  0  0  0  0  0
    1.4165   -0.7457    0.0000 H   0  0  0  0  0  0  0  0  0  0  0  0
  1 13  1  0  0  0  0
  1 22  1  0  0  0  0
  2 13  1  0  0  0  0
  2 23  1  0  0  0  0
  3 24  1  0  0  0  0
  3 28  1  0  0  0  0
  4 25  1  0  0  0  0
  4 29  1  0  0  0  0
  5 24  1  0  0  0  0
  5 36  1  0  0  0  0
  6 25  1  0  0  0  0
  6 37  1  0  0  0  0
  7  8  1  0  0  0  0
  7  9  1  0  0  0  0
  7 10  1  0  0  0  0
  7 56  1  0  0  0  0
  8 13  1  0  0  0  0
  8 57  1  0  0  0  0
  8 58  1  0  0  0  0
  9 16  1  0  0  0  0
  9 22  2  0  0  0  0
 10 17  1  0  0  0  0
 10 23  2  0  0  0  0
 11 14  1  0  0  0  0
 11 20  1  0  0  0  0
 11 26  1  0  0  0  0
 11 59  1  0  0  0  0
 12 15  1  0  0  0  0
 12 21  1  0  0  0  0
 12 27  1  0  0  0  0
 12 60  1  0  0  0  0
 13 61  1  0  0  0  0
 14 18  1  0  0  0  0
 14 28  2  0  0  0  0
 15 19  1  0  0  0  0
 15 29  2  0  0  0  0
 16 18  2  0  0  0  0
 16 32  1  0  0  0  0
 17 19  2  0  0  0  0
 17 33  1  0  0  0  0
 18 30  1  0  0  0  0
 19 31  1  0  0  0  0
 20 24  1  0  0  0  0
 20 62  1  0  0  0  0
 20 63  1  0  0  0  0
 21 25  1  0  0  0  0
 21 64  1  0  0  0  0
 21 65  1  0  0  0  0
 22 34  1  0  0  0  0
 23 35  1  0  0  0  0
 24 66  1  0  0  0  0
 25 67  1  0  0  0  0
 26 36  2  0  0  0  0
 26 40  1  0  0  0  0
 27 37  2  0  0  0  0
 27 41  1  0  0  0  0
 28 38  1  0  0  0  0
 29 39  1  0  0  0  0
 30 34  2  0  0  0  0
 30 68  1  0  0  0  0
 31 35  2  0  0  0  0
 31 69  1  0  0  0  0
 32 38  2  0  0  0  0
 32 70  1  0  0  0  0
 33 39  2  0  0  0  0
 33 71  1  0  0  0  0
 34 72  1  0  0  0  0
 35 73  1  0  0  0  0
 36 44  1  0  0  0  0
 37 45  1  0  0  0  0
 38 74  1  0  0  0  0
 39 75  1  0  0  0  0
 40 42  1  0  0  0  0
 40 48  2  0  0  0  0
 41 43  1  0  0  0  0
 41 49  2  0  0  0  0
 42 46  1  0  0  0  0
 42 50  2  0  0  0  0
 43 47  1  0  0  0  0
 43 51  2  0  0  0  0
 44 46  2  0  0  0  0
 44 76  1  0  0  0  0
 45 47  2  0  0  0  0
 45 77  1  0  0  0  0
 46 78  1  0  0  0  0
 47 79  1  0  0  0  0
 48 52  1  0  0  0  0
 48 80  1  0  0  0  0
 49 53  1  0  0  0  0
 49 81  1  0  0  0  0
 50 54  1  0  0  0  0
 50 82  1  0  0  0  0
 51 55  1  0  0  0  0
 51 83  1  0  0  0  0
 52 54  2  0  0  0  0
 52 84  1  0  0  0  0
 53 55  2  0  0  0  0
 53 85  1  0  0  0  0
 54 86  1  0  0  0  0
 55 87  1  0  0  0  0
M  END
> <PUBCHEM_COMPOUND_CID>
122202643

> <PUBCHEM_COMPOUND_CANONICALIZED>
1

> <PUBCHEM_CACTVS_COMPLEXITY>
1370

> <PUBCHEM_CACTVS_HBOND_ACCEPTOR>
6

> <PUBCHEM_CACTVS_HBOND_DONOR>
0

> <PUBCHEM_CACTVS_ROTATABLE_BOND>
0

> <PUBCHEM_CACTVS_SUBSKEYS>
AAADcfB8OAAAAAAAAAAAAAAAAAAAAAAAAAA0aNGjQAASJADRVAAAGgAAAAAADQSwmAMwDsAABACAAiBCAAACCAAgIAAIiAAGCIgcJiKEMRqiOCCkwBEMqAeA4PwOoAADAAAYAABAAAYAADAAAAAAAAAAAA==

> <PUBCHEM_IUPAC_OPENEYE_NAME>
7,9,26,28,45,47-hexaoxatetradecacyclo[25.25.1.18,20.134,46.02,25.03,22.06,21.010,19.013,18.029,52.032,51.033,48.035,44.036,41]pentapentaconta-2(25),3(22),4,6(21),10(19),11,13,15,17,23,29(52),30,32(51),33(48),35(44),36,38,40,42,49-icosaene

> <PUBCHEM_IUPAC_CAS_NAME>
7,9,26,28,45,47-hexaoxatetradecacyclo[25.25.1.18,20.134,46.02,25.03,22.06,21.010,19.013,18.029,52.032,51.033,48.035,44.036,41]pentapentaconta-2(25),3(22),4,6(21),10(19),11,13,15,17,23,29(52),30,32(51),33(48),35(44),36,38,40,42,49-eicosaene

> <PUBCHEM_IUPAC_NAME_MARKUP>
7,9,26,28,45,47-hexaoxatetradecacyclo[25.25.1.1<SUP>8,20</SUP>.1<SUP>34,46</SUP>.0<SUP>2,25</SUP>.0<SUP>3,22</SUP>.0<SUP>6,21</SUP>.0<SUP>10,19</SUP>.0<SUP>13,18</SUP>.0<SUP>29,52</SUP>.0<SUP>32,51</SUP>.0<SUP>33,48</SUP>.0<SUP>35,44</SUP>.0<SUP>36,41</SUP>]pentapentaconta-2(25),3(22),4,6(21),10(19),11,13,15,17,23,29(52),30,32(51),33(48),35(44),36,38,40,42,49-icosaene

> <PUBCHEM_IUPAC_NAME>
7,9,26,28,45,47-hexaoxatetradecacyclo[25.25.1.18,20.134,46.02,25.03,22.06,21.010,19.013,18.029,52.032,51.033,48.035,44.036,41]pentapentaconta-2(25),3(22),4,6(21),10(19),11,13,15,17,23,29(52),30,32(51),33(48),35(44),36,38,40,42,49-icosaene

> <PUBCHEM_IUPAC_SYSTEMATIC_NAME>
7,9,26,28,45,47-hexaoxatetradecacyclo[25.25.1.18,20.134,46.02,25.03,22.06,21.010,19.013,18.029,52.032,51.033,48.035,44.036,41]pentapentaconta-2(25),3(22),4,6(21),10(19),11,13,15,17,23,29(52),30,32(51),33(48),35(44),36,38,40,42,49-icosaene

> <PUBCHEM_IUPAC_TRADITIONAL_NAME>
7,9,26,28,45,47-hexaoxatetradecacyclo[25.25.1.18,20.134,46.02,25.03,22.06,21.010,19.013,18.029,52.032,51.033,48.035,44.036,41]pentapentaconta-2(25),3(22),4,6(21),10(19),11,13,15,17,23,29(52),30,32(51),33(48),35(44),36,38,40,42,49-eicosaene

> <PUBCHEM_IUPAC_INCHI>
InChI=1S/C49H32O6/c1-3-7-26-24(5-1)9-15-35-44(26)32-21-41(50-35)52-37-17-13-30-28(46(32)37)11-19-39-48(30)34-23-43(54-39)55-40-20-12-29-31(49(34)40)14-18-38-47(29)33-22-42(53-38)51-36-16-10-25-6-2-4-8-27(25)45(33)36/h1-20,32-34,41-43H,21-23H2

> <PUBCHEM_IUPAC_INCHIKEY>
ALVVJADBWVOHQC-UHFFFAOYSA-N

> <PUBCHEM_XLOGP3_AA>
12.1

> <PUBCHEM_EXACT_MASS>
716.21988874

> <PUBCHEM_MOLECULAR_FORMULA>
C49H32O6

> <PUBCHEM_MOLECULAR_WEIGHT>
716.8

> <PUBCHEM_OPENEYE_CAN_SMILES>
C1C2C3=C(C=CC4=C3C=CC5=C4C6CC(O5)OC7=C6C8=CC=CC=C8C=C7)OC1OC9=C2C1=C(C=C9)C2=C(C=C1)OC1CC2C2=C(O1)C=CC1=CC=CC=C12

> <PUBCHEM_OPENEYE_ISO_SMILES>
C1C2C3=C(C=CC4=C3C=CC5=C4C6CC(O5)OC7=C6C8=CC=CC=C8C=C7)OC1OC9=C2C1=C(C=C9)C2=C(C=C1)OC1CC2C2=C(O1)C=CC1=CC=CC=C12

> <PUBCHEM_CACTVS_TPSA>
55.4

> <PUBCHEM_MONOISOTOPIC_WEIGHT>
716.21988874

> <PUBCHEM_TOTAL_CHARGE>
0

> <PUBCHEM_HEAVY_ATOM_COUNT>
55

> <PUBCHEM_ATOM_DEF_STEREO_COUNT>
0

> <PUBCHEM_ATOM_UDEF_STEREO_COUNT>
4

> <PUBCHEM_BOND_DEF_STEREO_COUNT>
0

> <PUBCHEM_BOND_UDEF_STEREO_COUNT>
0

> <PUBCHEM_ISOTOPIC_ATOM_COUNT>
0

> <PUBCHEM_COMPONENT_COUNT>
1

> <PUBCHEM_CACTVS_TAUTO_COUNT>
-1

> <PUBCHEM_COORDINATE_TYPE>
1
5
255

> <PUBCHEM_BONDANNOTATIONS>
10  17  8
10  23  8
11  20  3
12  21  3
14  18  8
14  28  8
15  19  8
15  29  8
16  18  8
16  32  8
17  19  8
17  33  8
18  30  8
19  31  8
24  20  3
25  21  3
22  34  8
23  35  8
26  36  8
26  40  8
27  37  8
27  41  8
28  38  8
29  39  8
30  34  8
31  35  8
32  38  8
33  39  8
36  44  8
37  45  8
40  42  8
40  48  8
41  43  8
41  49  8
42  46  8
42  50  8
43  47  8
43  51  8
44  46  8
45  47  8
48  52  8
49  53  8
50  54  8
51  55  8
52  54  8
53  55  8
9  16  8
9  22  8

$$$$
