 
  -OEChem-10192103342D

 21 21  0     0  0  0  0  0  0999 V2000
    2.8660    2.3450    0.0000 O   0  0  0  0  0  0  0  0  0  0  0  0
    2.8660   -0.6550    0.0000 C   0  0  0  0  0  0  0  0  0  0  0  0
    2.0000   -1.1550    0.0000 C   0  0  0  0  0  0  0  0  0  0  0  0
    3.7320   -1.1550    0.0000 C   0  0  0  0  0  0  0  0  0  0  0  0
    2.0000   -2.1550    0.0000 C   0  0  0  0  0  0  0  0  0  0  0  0
    3.7320   -2.1550    0.0000 C   0  0  0  0  0  0  0  0  0  0  0  0
    2.8660   -2.6550    0.0000 C   0  0  0  0  0  0  0  0  0  0  0  0
    2.8660    0.3450    0.0000 C   0  0  0  0  0  0  0  0  0  0  0  0
    2.8660    1.3450    0.0000 C   0  0  0  0  0  0  0  0  0  0  0  0
    3.4030   -0.3450    0.0000 H   0  0  0  0  0  0  0  0  0  0  0  0
    1.7880   -0.5724    0.0000 H   0  0  0  0  0  0  0  0  0  0  0  0
    1.3894   -1.2627    0.0000 H   0  0  0  0  0  0  0  0  0  0  0  0
    4.3426   -1.2627    0.0000 H   0  0  0  0  0  0  0  0  0  0  0  0
    3.9441   -0.5724    0.0000 H   0  0  0  0  0  0  0  0  0  0  0  0
    1.3894   -2.0473    0.0000 H   0  0  0  0  0  0  0  0  0  0  0  0
    1.7880   -2.7376    0.0000 H   0  0  0  0  0  0  0  0  0  0  0  0
    3.9441   -2.7376    0.0000 H   0  0  0  0  0  0  0  0  0  0  0  0
    4.3426   -2.0473    0.0000 H   0  0  0  0  0  0  0  0  0  0  0  0
    2.4675   -3.1300    0.0000 H   0  0  0  0  0  0  0  0  0  0  0  0
    3.2646   -3.1300    0.0000 H   0  0  0  0  0  0  0  0  0  0  0  0
    3.4030    2.6550    0.0000 H   0  0  0  0  0  0  0  0  0  0  0  0
  1  9  1  0  0  0  0
  1 21  1  0  0  0  0
  2  3  1  0  0  0  0
  2  4  1  0  0  0  0
  2  8  1  0  0  0  0
  2 10  1  0  0  0  0
  3  5  1  0  0  0  0
  3 11  1  0  0  0  0
  3 12  1  0  0  0  0
  4  6  1  0  0  0  0
  4 13  1  0  0  0  0
  4 14  1  0  0  0  0
  5  7  1  0  0  0  0
  5 15  1  0  0  0  0
  5 16  1  0  0  0  0
  6  7  1  0  0  0  0
  6 17  1  0  0  0  0
  6 18  1  0  0  0  0
  7 19  1  0  0  0  0
  7 20  1  0  0  0  0
  8  9  3  0  0  0  0
M  END
> <PUBCHEM_COMPOUND_CID>
13667928

> <PUBCHEM_COMPOUND_CANONICALIZED>
1

> <PUBCHEM_CACTVS_COMPLEXITY>
131

> <PUBCHEM_CACTVS_HBOND_ACCEPTOR>
1

> <PUBCHEM_CACTVS_HBOND_DONOR>
1

> <PUBCHEM_CACTVS_ROTATABLE_BOND>
0

> <PUBCHEM_CACTVS_SUBSKEYS>
AAADccBwIAAAAAAAAAAAAAAAAAAAAAAAAAAwAAAAAAAAAAAAAAAAGgAACAAADQCAgAAAAAAAAgBAEAAAAAgAAAAAAAAAAAAAAAAAAAIAAAAAAAAAAAAAAAEAgAAOAAAAAAAAAAAAAAAAAAAAAAAAAAAAAA==

> <PUBCHEM_IUPAC_OPENEYE_NAME>
2-cyclohexylethynol

> <PUBCHEM_IUPAC_CAS_NAME>
2-cyclohexylethynol

> <PUBCHEM_IUPAC_NAME_MARKUP>
2-cyclohexylethynol

> <PUBCHEM_IUPAC_NAME>
2-cyclohexylethynol

> <PUBCHEM_IUPAC_SYSTEMATIC_NAME>
2-cyclohexylethynol

> <PUBCHEM_IUPAC_TRADITIONAL_NAME>
2-cyclohexylethynol

> <PUBCHEM_IUPAC_INCHI>
InChI=1S/C8H12O/c9-7-6-8-4-2-1-3-5-8/h8-9H,1-5H2

> <PUBCHEM_IUPAC_INCHIKEY>
HDXGGZDTUXZAMW-UHFFFAOYSA-N

> <PUBCHEM_XLOGP3_AA>
3.1

> <PUBCHEM_EXACT_MASS>
124.088815002

> <PUBCHEM_MOLECULAR_FORMULA>
C8H12O

> <PUBCHEM_MOLECULAR_WEIGHT>
124.18

> <PUBCHEM_OPENEYE_CAN_SMILES>
C1CCC(CC1)C#CO

> <PUBCHEM_OPENEYE_ISO_SMILES>
C1CCC(CC1)C#CO

> <PUBCHEM_CACTVS_TPSA>
20.2

> <PUBCHEM_MONOISOTOPIC_WEIGHT>
124.088815002

> <PUBCHEM_TOTAL_CHARGE>
0

> <PUBCHEM_HEAVY_ATOM_COUNT>
9

> <PUBCHEM_ATOM_DEF_STEREO_COUNT>
0

> <PUBCHEM_ATOM_UDEF_STEREO_COUNT>
0

> <PUBCHEM_BOND_DEF_STEREO_COUNT>
0

> <PUBCHEM_BOND_UDEF_STEREO_COUNT>
0

> <PUBCHEM_ISOTOPIC_ATOM_COUNT>
0

> <PUBCHEM_COMPONENT_COUNT>
1

> <PUBCHEM_CACTVS_TAUTO_COUNT>
-1

> <PUBCHEM_COORDINATE_TYPE>
1
5
255

$$$$
