 
  -OEChem-10192103502D

 61 64  0     1  0  0  0  0  0999 V2000
    6.7626   -0.4273    0.0000 O   0  0  0  0  0  0  0  0  0  0  0  0
    2.6844   -0.2688    0.0000 O   0  0  0  0  0  0  0  0  0  0  0  0
    5.8387    1.8031    0.0000 O   0  0  0  0  0  0  0  0  0  0  0  0
    6.6186   -3.0296    0.0000 O   0  0  0  0  0  0  0  0  0  0  0  0
    6.8047    1.2966    0.0000 O   0  0  0  0  0  0  0  0  0  0  0  0
    2.3503    1.7186    0.0000 O   0  0  0  0  0  0  0  0  0  0  0  0
    3.4848    3.5664    0.0000 O   0  0  0  0  0  0  0  0  0  0  0  0
    4.9149   -1.1927    0.0000 C   0  0  3  0  0  0  0  0  0  0  0  0
    3.9910   -0.8100    0.0000 C   0  0  2  0  0  0  0  0  0  0  0  0
    4.8343   -2.1835    0.0000 C   0  0  2  0  0  0  0  0  0  0  0  0
    5.8387   -0.8100    0.0000 C   0  0  2  0  0  0  0  0  0  0  0  0
    3.9910    1.0378    0.0000 C   0  0  1  0  0  0  0  0  0  0  0  0
    3.6083    0.1139    0.0000 C   0  0  2  0  0  0  0  0  0  0  0  0
    4.9149    1.4204    0.0000 C   0  0  2  0  0  0  0  0  0  0  0  0
    5.7992   -2.4563    0.0000 C   0  0  3  0  0  0  0  0  0  0  0  0
    6.3912   -1.6469    0.0000 C   0  0  0  0  0  0  0  0  0  0  0  0
    3.3473   -1.5676    0.0000 C   0  0  0  0  0  0  0  0  0  0  0  0
    3.8675   -2.4147    0.0000 C   0  0  0  0  0  0  0  0  0  0  0  0
    4.8343    2.4113    0.0000 C   0  0  0  0  0  0  0  0  0  0  0  0
    6.2214    0.1139    0.0000 C   0  0  0  0  0  0  0  0  0  0  0  0
    5.8387    1.0378    0.0000 C   0  0  1  0  0  0  0  0  0  0  0  0
    3.3473    1.7954    0.0000 C   0  0  2  0  0  0  0  0  0  0  0  0
    3.8675    2.6425    0.0000 C   0  0  2  0  0  0  0  0  0  0  0  0
    2.6844    0.4966    0.0000 C   0  0  0  0  0  0  0  0  0  0  0  0
    5.5072   -3.4127    0.0000 C   0  0  0  0  0  0  0  0  0  0  0  0
    5.0660    3.3840    0.0000 C   0  0  0  0  0  0  0  0  0  0  0  0
    5.8311    2.4914    0.0000 C   0  0  0  0  0  0  0  0  0  0  0  0
    4.9149   -0.5727    0.0000 H   0  0  0  0  0  0  0  0  0  0  0  0
    3.1513   -0.6781    0.0000 H   0  0  0  0  0  0  0  0  0  0  0  0
    4.8216   -2.8034    0.0000 H   0  0  0  0  0  0  0  0  0  0  0  0
    4.5920    0.4367    0.0000 H   0  0  0  0  0  0  0  0  0  0  0  0
    6.8448   -2.0695    0.0000 H   0  0  0  0  0  0  0  0  0  0  0  0
    6.8646   -1.2465    0.0000 H   0  0  0  0  0  0  0  0  0  0  0  0
    2.9196   -1.1187    0.0000 H   0  0  0  0  0  0  0  0  0  0  0  0
    2.8560   -1.9457    0.0000 H   0  0  0  0  0  0  0  0  0  0  0  0
    3.3080   -2.6818    0.0000 H   0  0  0  0  0  0  0  0  0  0  0  0
    4.0743   -2.9992    0.0000 H   0  0  0  0  0  0  0  0  0  0  0  0
    6.7133   -0.2635    0.0000 H   0  0  0  0  0  0  0  0  0  0  0  0
    6.7133    0.4913    0.0000 H   0  0  0  0  0  0  0  0  0  0  0  0
    5.8793    1.6564    0.0000 H   0  0  0  0  0  0  0  0  0  0  0  0
    3.1088    1.2231    0.0000 H   0  0  0  0  0  0  0  0  0  0  0  0
    4.2699    3.1141    0.0000 H   0  0  0  0  0  0  0  0  0  0  0  0
    2.9217    1.0694    0.0000 H   0  0  0  0  0  0  0  0  0  0  0  0
    2.1116    0.7338    0.0000 H   0  0  0  0  0  0  0  0  0  0  0  0
    2.4472   -0.0762    0.0000 H   0  0  0  0  0  0  0  0  0  0  0  0
    4.9142   -3.2316    0.0000 H   0  0  0  0  0  0  0  0  0  0  0  0
    5.3261   -4.0057    0.0000 H   0  0  0  0  0  0  0  0  0  0  0  0
    6.1001   -3.5938    0.0000 H   0  0  0  0  0  0  0  0  0  0  0  0
    5.6692    3.2403    0.0000 H   0  0  0  0  0  0  0  0  0  0  0  0
    5.2097    3.9872    0.0000 H   0  0  0  0  0  0  0  0  0  0  0  0
    4.4629    3.5277    0.0000 H   0  0  0  0  0  0  0  0  0  0  0  0
    5.8808    1.8734    0.0000 H   0  0  0  0  0  0  0  0  0  0  0  0
    6.4491    2.5412    0.0000 H   0  0  0  0  0  0  0  0  0  0  0  0
    5.7814    3.1094    0.0000 H   0  0  0  0  0  0  0  0  0  0  0  0
    7.2545   -0.8047    0.0000 H   0  0  0  0  0  0  0  0  0  0  0  0
    2.1925    0.1086    0.0000 H   0  0  0  0  0  0  0  0  0  0  0  0
    6.4115    2.0404    0.0000 H   0  0  0  0  0  0  0  0  0  0  0  0
    6.5647   -3.6473    0.0000 H   0  0  0  0  0  0  0  0  0  0  0  0
    7.2431    0.8582    0.0000 H   0  0  0  0  0  0  0  0  0  0  0  0
    2.0000    2.2302    0.0000 H   0  0  0  0  0  0  0  0  0  0  0  0
    2.8701    3.6473    0.0000 H   0  0  0  0  0  0  0  0  0  0  0  0
 11  1  1  1  0  0  0
  1 55  1  0  0  0  0
 13  2  1  1  0  0  0
  2 56  1  0  0  0  0
 14  3  1  6  0  0  0
  3 57  1  0  0  0  0
  4 15  1  0  0  0  0
  4 58  1  0  0  0  0
 21  5  1  6  0  0  0
  5 59  1  0  0  0  0
 22  6  1  1  0  0  0
  6 60  1  0  0  0  0
 23  7  1  6  0  0  0
  7 61  1  0  0  0  0
  8  9  1  0  0  0  0
  8 10  1  0  0  0  0
  8 11  1  0  0  0  0
  8 28  1  0  0  0  0
  9 13  1  0  0  0  0
  9 17  1  0  0  0  0
  9 29  1  6  0  0  0
 10 15  1  0  0  0  0
 10 18  1  0  0  0  0
 10 30  1  0  0  0  0
 11 16  1  0  0  0  0
 11 20  1  0  0  0  0
 12 13  1  0  0  0  0
 12 14  1  0  0  0  0
 12 22  1  0  0  0  0
 12 31  1  1  0  0  0
 13 24  1  0  0  0  0
 14 19  1  0  0  0  0
 14 21  1  0  0  0  0
 15 16  1  0  0  0  0
 15 25  1  0  0  0  0
 16 32  1  0  0  0  0
 16 33  1  0  0  0  0
 17 18  1  0  0  0  0
 17 34  1  0  0  0  0
 17 35  1  0  0  0  0
 18 36  1  0  0  0  0
 18 37  1  0  0  0  0
 19 23  1  0  0  0  0
 19 26  1  0  0  0  0
 19 27  1  0  0  0  0
 20 21  1  0  0  0  0
 20 38  1  0  0  0  0
 20 39  1  0  0  0  0
 21 40  1  0  0  0  0
 22 23  1  0  0  0  0
 22 41  1  0  0  0  0
 23 42  1  0  0  0  0
 24 43  1  0  0  0  0
 24 44  1  0  0  0  0
 24 45  1  0  0  0  0
 25 46  1  0  0  0  0
 25 47  1  0  0  0  0
 25 48  1  0  0  0  0
 26 49  1  0  0  0  0
 26 50  1  0  0  0  0
 26 51  1  0  0  0  0
 27 52  1  0  0  0  0
 27 53  1  0  0  0  0
 27 54  1  0  0  0  0
M  END
> <PUBCHEM_COMPOUND_CID>
11176650

> <PUBCHEM_COMPOUND_CANONICALIZED>
1

> <PUBCHEM_CACTVS_COMPLEXITY>
654

> <PUBCHEM_CACTVS_HBOND_ACCEPTOR>
7

> <PUBCHEM_CACTVS_HBOND_DONOR>
7

> <PUBCHEM_CACTVS_ROTATABLE_BOND>
0

> <PUBCHEM_CACTVS_SUBSKEYS>
AAADcfB4OAAAAAAAAAAAAAAAAAAAAYMGAAAAAAAAAAAYMAAAAAAAGgAACAAAD1SggAICAAAAAgAAAAAAAAAAAAAAAAAAAAAAAAABEAIAAAAAQAAFAAABAAHA4PQPgAAAAAAAAAAAAAAAAAAAAYQADCAAAA==

> <PUBCHEM_IUPAC_OPENEYE_NAME>
(1R,2R,3S,4R,5R,7R,8R,10S,13R)-2,6,6,12-tetramethyltetracyclo[8.5.1.03,7.013,16]hexadecane-2,4,5,7,8,10,12-heptol

> <PUBCHEM_IUPAC_CAS_NAME>
(1R,2R,3S,4R,5R,7R,8R,10S,13R)-2,6,6,12-tetramethyltetracyclo[8.5.1.03,7.013,16]hexadecane-2,4,5,7,8,10,12-heptol

> <PUBCHEM_IUPAC_NAME_MARKUP>
(1<I>R</I>,2<I>R</I>,3<I>S</I>,4<I>R</I>,5<I>R</I>,7<I>R</I>,8<I>R</I>,10<I>S</I>,13<I>R</I>)-2,6,6,12-tetramethyltetracyclo[8.5.1.0<SUP>3,7</SUP>.0<SUP>13,16</SUP>]hexadecane-2,4,5,7,8,10,12-heptol

> <PUBCHEM_IUPAC_NAME>
(1R,2R,3S,4R,5R,7R,8R,10S,13R)-2,6,6,12-tetramethyltetracyclo[8.5.1.03,7.013,16]hexadecane-2,4,5,7,8,10,12-heptol

> <PUBCHEM_IUPAC_SYSTEMATIC_NAME>
(1R,2R,3S,4R,5R,7R,8R,10S,13R)-2,6,6,12-tetramethyltetracyclo[8.5.1.03,7.013,16]hexadecane-2,4,5,7,8,10,12-heptol

> <PUBCHEM_IUPAC_TRADITIONAL_NAME>
(1R,2R,3S,4R,5R,7R,8R,10S,13R)-2,6,6,12-tetramethyltetracyclo[8.5.1.03,7.013,16]hexadecane-2,4,5,7,8,10,12-heptol

> <PUBCHEM_IUPAC_INCHI>
InChI=1S/C20H34O7/c1-16(2)15(23)13(22)14-18(4,25)10-6-5-9-12(10)19(26,8-17(9,3)24)7-11(21)20(14,16)27/h9-15,21-27H,5-8H2,1-4H3/t9-,10-,11-,12?,13-,14+,15+,17?,18-,19+,20-/m1/s1

> <PUBCHEM_IUPAC_INCHIKEY>
IXAODJOYDZCKBG-SAUMODHESA-N

> <PUBCHEM_XLOGP3_AA>
-1.4

> <PUBCHEM_EXACT_MASS>
386.23045342

> <PUBCHEM_MOLECULAR_FORMULA>
C20H34O7

> <PUBCHEM_MOLECULAR_WEIGHT>
386.5

> <PUBCHEM_OPENEYE_CAN_SMILES>
CC1(C(C(C2C1(C(CC3(CC(C4C3C(C2(C)O)CC4)(C)O)O)O)O)O)O)C

> <PUBCHEM_OPENEYE_ISO_SMILES>
C[C@]1([C@@H]2CC[C@@H]3C2[C@](C[C@H]([C@]4([C@H]1[C@H]([C@@H](C4(C)C)O)O)O)O)(CC3(C)O)O)O

> <PUBCHEM_CACTVS_TPSA>
142

> <PUBCHEM_MONOISOTOPIC_WEIGHT>
386.23045342

> <PUBCHEM_TOTAL_CHARGE>
0

> <PUBCHEM_HEAVY_ATOM_COUNT>
27

> <PUBCHEM_ATOM_DEF_STEREO_COUNT>
9

> <PUBCHEM_ATOM_UDEF_STEREO_COUNT>
2

> <PUBCHEM_BOND_DEF_STEREO_COUNT>
0

> <PUBCHEM_BOND_UDEF_STEREO_COUNT>
0

> <PUBCHEM_ISOTOPIC_ATOM_COUNT>
0

> <PUBCHEM_COMPONENT_COUNT>
1

> <PUBCHEM_CACTVS_TAUTO_COUNT>
-1

> <PUBCHEM_COORDINATE_TYPE>
1
5
255

> <PUBCHEM_BONDANNOTATIONS>
11  1  5
12  31  5
13  2  5
14  3  6
15  4  3
21  5  6
22  6  5
23  7  6
8  10  3
9  29  6

$$$$
