 
  -OEChem-10192103282D

 79 83  0     0  0  0  0  0  0999 V2000
   12.6501   -2.6813    0.0000 O   0  5  0  0  0  0  0  0  0  0  0  0
   11.0092   -2.1270    0.0000 O   0  0  0  0  0  0  0  0  0  0  0  0
   14.9347    1.3802    0.0000 O   0  0  0  0  0  0  0  0  0  0  0  0
    7.3146    1.3802    0.0000 O   0  0  0  0  0  0  0  0  0  0  0  0
   16.9507   -0.8414    0.0000 O   0  0  0  0  0  0  0  0  0  0  0  0
    5.2987   -0.8414    0.0000 O   0  0  0  0  0  0  0  0  0  0  0  0
   18.2334    0.3225    0.0000 O   0  0  0  0  0  0  0  0  0  0  0  0
    4.0160    0.3225    0.0000 O   0  0  0  0  0  0  0  0  0  0  0  0
   11.9897   -1.9304    0.0000 N   0  3  0  0  0  0  0  0  0  0  0  0
   16.2787   -0.1009    0.0000 N   0  0  0  0  0  0  0  0  0  0  0  0
    5.9706   -0.1009    0.0000 N   0  0  0  0  0  0  0  0  0  0  0  0
   11.1247    1.3405    0.0000 C   0  0  0  0  0  0  0  0  0  0  0  0
   11.9337    0.7528    0.0000 C   0  0  0  0  0  0  0  0  0  0  0  0
   10.3157    0.7528    0.0000 C   0  0  0  0  0  0  0  0  0  0  0  0
   11.7125    2.1496    0.0000 C   0  0  0  0  0  0  0  0  0  0  0  0
   10.5369    2.1496    0.0000 C   0  0  0  0  0  0  0  0  0  0  0  0
   11.6247   -0.1983    0.0000 C   0  0  0  0  0  0  0  0  0  0  0  0
   10.6247   -0.1983    0.0000 C   0  0  0  0  0  0  0  0  0  0  0  0
   12.9491    0.9850    0.0000 C   0  0  0  0  0  0  0  0  0  0  0  0
    9.3002    0.9850    0.0000 C   0  0  0  0  0  0  0  0  0  0  0  0
   12.3096   -0.9830    0.0000 C   0  0  0  0  0  0  0  0  0  0  0  0
   11.3057    3.0631    0.0000 C   0  0  0  0  0  0  0  0  0  0  0  0
    9.5424    2.0450    0.0000 C   0  0  0  0  0  0  0  0  0  0  0  0
    9.9397   -0.9830    0.0000 C   0  0  0  0  0  0  0  0  0  0  0  0
   13.6520    0.2163    0.0000 C   0  0  0  0  0  0  0  0  0  0  0  0
    8.5973    0.2163    0.0000 C   0  0  0  0  0  0  0  0  0  0  0  0
   13.3302   -0.7743    0.0000 C   0  0  0  0  0  0  0  0  0  0  0  0
    8.9192   -0.7743    0.0000 C   0  0  0  0  0  0  0  0  0  0  0  0
   14.6294    0.4280    0.0000 C   0  0  0  0  0  0  0  0  0  0  0  0
    7.6200    0.4280    0.0000 C   0  0  0  0  0  0  0  0  0  0  0  0
   15.3014   -0.3126    0.0000 C   0  0  0  0  0  0  0  0  0  0  0  0
    6.9480   -0.3126    0.0000 C   0  0  0  0  0  0  0  0  0  0  0  0
   14.9960   -1.2648    0.0000 C   0  0  0  0  0  0  0  0  0  0  0  0
    7.2533   -1.2648    0.0000 C   0  0  0  0  0  0  0  0  0  0  0  0
   17.9280   -0.6298    0.0000 C   0  0  0  0  0  0  0  0  0  0  0  0
    4.3213   -0.6298    0.0000 C   0  0  0  0  0  0  0  0  0  0  0  0
   18.6000   -1.3703    0.0000 C   0  0  0  0  0  0  0  0  0  0  0  0
    3.6493   -1.3703    0.0000 C   0  0  0  0  0  0  0  0  0  0  0  0
   19.5774   -1.1586    0.0000 C   0  0  0  0  0  0  0  0  0  0  0  0
   18.2947   -2.3226    0.0000 C   0  0  0  0  0  0  0  0  0  0  0  0
    2.6720   -1.1586    0.0000 C   0  0  0  0  0  0  0  0  0  0  0  0
    3.9547   -2.3226    0.0000 C   0  0  0  0  0  0  0  0  0  0  0  0
   20.2494   -1.8992    0.0000 C   0  0  0  0  0  0  0  0  0  0  0  0
   18.9667   -3.0631    0.0000 C   0  0  0  0  0  0  0  0  0  0  0  0
    2.0000   -1.8992    0.0000 C   0  0  0  0  0  0  0  0  0  0  0  0
    3.2827   -3.0631    0.0000 C   0  0  0  0  0  0  0  0  0  0  0  0
   19.9440   -2.8514    0.0000 C   0  0  0  0  0  0  0  0  0  0  0  0
    2.3053   -2.8514    0.0000 C   0  0  0  0  0  0  0  0  0  0  0  0
   12.1431    1.7036    0.0000 H   0  0  0  0  0  0  0  0  0  0  0  0
   12.2265    2.4963    0.0000 H   0  0  0  0  0  0  0  0  0  0  0  0
   11.0941    2.4214    0.0000 H   0  0  0  0  0  0  0  0  0  0  0  0
   10.3660    2.7456    0.0000 H   0  0  0  0  0  0  0  0  0  0  0  0
   13.1339    1.5768    0.0000 H   0  0  0  0  0  0  0  0  0  0  0  0
    9.1155    1.5768    0.0000 H   0  0  0  0  0  0  0  0  0  0  0  0
   11.8721    3.3153    0.0000 H   0  0  0  0  0  0  0  0  0  0  0  0
   11.0535    3.6295    0.0000 H   0  0  0  0  0  0  0  0  0  0  0  0
   10.7393    2.8109    0.0000 H   0  0  0  0  0  0  0  0  0  0  0  0
    9.4776    2.6616    0.0000 H   0  0  0  0  0  0  0  0  0  0  0  0
    8.9258    1.9802    0.0000 H   0  0  0  0  0  0  0  0  0  0  0  0
    9.6072    1.4284    0.0000 H   0  0  0  0  0  0  0  0  0  0  0  0
   10.1381   -1.5704    0.0000 H   0  0  0  0  0  0  0  0  0  0  0  0
   13.7432   -1.2367    0.0000 H   0  0  0  0  0  0  0  0  0  0  0  0
    8.5061   -1.2367    0.0000 H   0  0  0  0  0  0  0  0  0  0  0  0
   14.4056   -1.0755    0.0000 H   0  0  0  0  0  0  0  0  0  0  0  0
   14.8067   -1.8552    0.0000 H   0  0  0  0  0  0  0  0  0  0  0  0
   15.5864   -1.4541    0.0000 H   0  0  0  0  0  0  0  0  0  0  0  0
    6.6630   -1.4541    0.0000 H   0  0  0  0  0  0  0  0  0  0  0  0
    7.4426   -1.8552    0.0000 H   0  0  0  0  0  0  0  0  0  0  0  0
    7.8437   -1.0755    0.0000 H   0  0  0  0  0  0  0  0  0  0  0  0
   19.7667   -0.5682    0.0000 H   0  0  0  0  0  0  0  0  0  0  0  0
   17.6887   -2.4538    0.0000 H   0  0  0  0  0  0  0  0  0  0  0  0
    2.4827   -0.5682    0.0000 H   0  0  0  0  0  0  0  0  0  0  0  0
    4.5606   -2.4538    0.0000 H   0  0  0  0  0  0  0  0  0  0  0  0
   20.8553   -1.7680    0.0000 H   0  0  0  0  0  0  0  0  0  0  0  0
   18.7773   -3.6535    0.0000 H   0  0  0  0  0  0  0  0  0  0  0  0
    1.3940   -1.7680    0.0000 H   0  0  0  0  0  0  0  0  0  0  0  0
    3.4720   -3.6535    0.0000 H   0  0  0  0  0  0  0  0  0  0  0  0
   20.3606   -3.3106    0.0000 H   0  0  0  0  0  0  0  0  0  0  0  0
    1.8887   -3.3106    0.0000 H   0  0  0  0  0  0  0  0  0  0  0  0
  1  9  1  0  0  0  0
  2  9  2  0  0  0  0
  3 29  2  0  0  0  0
  4 30  2  0  0  0  0
  5 10  1  0  0  0  0
  5 35  1  0  0  0  0
  6 11  1  0  0  0  0
  6 36  1  0  0  0  0
  7 35  2  0  0  0  0
  8 36  2  0  0  0  0
  9 21  1  0  0  0  0
 10 31  2  0  0  0  0
 11 32  2  0  0  0  0
 12 13  1  0  0  0  0
 12 14  1  0  0  0  0
 12 15  1  0  0  0  0
 12 16  1  0  0  0  0
 13 17  2  0  0  0  0
 13 19  1  0  0  0  0
 14 18  2  0  0  0  0
 14 20  1  0  0  0  0
 15 22  1  0  0  0  0
 15 49  1  0  0  0  0
 15 50  1  0  0  0  0
 16 23  1  0  0  0  0
 16 51  1  0  0  0  0
 16 52  1  0  0  0  0
 17 18  1  0  0  0  0
 17 21  1  0  0  0  0
 18 24  1  0  0  0  0
 19 25  2  0  0  0  0
 19 53  1  0  0  0  0
 20 26  2  0  0  0  0
 20 54  1  0  0  0  0
 21 27  2  0  0  0  0
 22 55  1  0  0  0  0
 22 56  1  0  0  0  0
 22 57  1  0  0  0  0
 23 58  1  0  0  0  0
 23 59  1  0  0  0  0
 23 60  1  0  0  0  0
 24 28  2  0  0  0  0
 24 61  1  0  0  0  0
 25 27  1  0  0  0  0
 25 29  1  0  0  0  0
 26 28  1  0  0  0  0
 26 30  1  0  0  0  0
 27 62  1  0  0  0  0
 28 63  1  0  0  0  0
 29 31  1  0  0  0  0
 30 32  1  0  0  0  0
 31 33  1  0  0  0  0
 32 34  1  0  0  0  0
 33 64  1  0  0  0  0
 33 65  1  0  0  0  0
 33 66  1  0  0  0  0
 34 67  1  0  0  0  0
 34 68  1  0  0  0  0
 34 69  1  0  0  0  0
 35 37  1  0  0  0  0
 36 38  1  0  0  0  0
 37 39  2  0  0  0  0
 37 40  1  0  0  0  0
 38 41  2  0  0  0  0
 38 42  1  0  0  0  0
 39 43  1  0  0  0  0
 39 70  1  0  0  0  0
 40 44  2  0  0  0  0
 40 71  1  0  0  0  0
 41 45  1  0  0  0  0
 41 72  1  0  0  0  0
 42 46  2  0  0  0  0
 42 73  1  0  0  0  0
 43 47  2  0  0  0  0
 43 74  1  0  0  0  0
 44 47  1  0  0  0  0
 44 75  1  0  0  0  0
 45 48  2  0  0  0  0
 45 76  1  0  0  0  0
 46 48  1  0  0  0  0
 46 77  1  0  0  0  0
 47 78  1  0  0  0  0
 48 79  1  0  0  0  0
M  CHG  2   1  -1   9   1
M  END
> <PUBCHEM_COMPOUND_CID>
122485267

> <PUBCHEM_COMPOUND_CANONICALIZED>
1

> <PUBCHEM_CACTVS_COMPLEXITY>
1290

> <PUBCHEM_CACTVS_HBOND_ACCEPTOR>
10

> <PUBCHEM_CACTVS_HBOND_DONOR>
0

> <PUBCHEM_CACTVS_ROTATABLE_BOND>
12

> <PUBCHEM_CACTVS_SUBSKEYS>
AAADceB/PAAAAAAAAAAAAAAAAAAAAYAAAAAwYMGAAAAAAGABVAAAHgAEAAAADgyBmAAyyIAQQACpA6TySwCCAAAkAgAoiAEwbMoIJjKAlZGAMQBkwAEIyYecyOCPwAACQAASAACAAASAACQAAQAACAAAAA==

> <PUBCHEM_IUPAC_OPENEYE_NAME>
[(E)-[2-[7-[(2E)-2-benzoyloxyiminopropanoyl]-9,9-diethyl-5-nitro-fluoren-2-yl]-1-methyl-2-oxo-ethylidene]amino] benzoate

> <PUBCHEM_IUPAC_CAS_NAME>
benzoic acid [(E)-[1-[7-[(2E)-2-benzoyloxyimino-1-oxopropyl]-9,9-diethyl-5-nitro-2-fluorenyl]-1-oxopropan-2-ylidene]amino] ester

> <PUBCHEM_IUPAC_NAME_MARKUP>
[(<I>E</I>)-[1-[7-[(2<I>E</I>)-2-benzoyloxyiminopropanoyl]-9,9-diethyl-5-nitrofluoren-2-yl]-1-oxopropan-2-ylidene]amino] benzoate

> <PUBCHEM_IUPAC_NAME>
[(E)-[1-[7-[(2E)-2-benzoyloxyiminopropanoyl]-9,9-diethyl-5-nitrofluoren-2-yl]-1-oxopropan-2-ylidene]amino] benzoate

> <PUBCHEM_IUPAC_SYSTEMATIC_NAME>
[(E)-[1-[9,9-diethyl-5-nitro-7-[(2E)-2-(phenylcarbonyloxyimino)propanoyl]fluoren-2-yl]-1-oxidanylidene-propan-2-ylidene]amino] benzoate

> <PUBCHEM_IUPAC_TRADITIONAL_NAME>
benzoic acid [(E)-[2-[7-[(2E)-2-benzoyloximinopropanoyl]-9,9-diethyl-5-nitro-fluoren-2-yl]-2-keto-1-methyl-ethylidene]amino] ester

> <PUBCHEM_IUPAC_INCHI>
InChI=1S/C37H31N3O8/c1-5-37(6-2)29-19-26(33(41)22(3)38-47-35(43)24-13-9-7-10-14-24)17-18-28(29)32-30(37)20-27(21-31(32)40(45)46)34(42)23(4)39-48-36(44)25-15-11-8-12-16-25/h7-21H,5-6H2,1-4H3/b38-22+,39-23+

> <PUBCHEM_IUPAC_INCHIKEY>
DKPQHPDKVVJNJY-FXBANDFYSA-N

> <PUBCHEM_XLOGP3_AA>
8

> <PUBCHEM_EXACT_MASS>
645.21111496

> <PUBCHEM_MOLECULAR_FORMULA>
C37H31N3O8

> <PUBCHEM_MOLECULAR_WEIGHT>
645.7

> <PUBCHEM_OPENEYE_CAN_SMILES>
CCC1(C2=C(C=CC(=C2)C(=O)C(=NOC(=O)C3=CC=CC=C3)C)C4=C1C=C(C=C4[N+](=O)[O-])C(=O)C(=NOC(=O)C5=CC=CC=C5)C)CC

> <PUBCHEM_OPENEYE_ISO_SMILES>
CCC1(C2=C(C=CC(=C2)C(=O)/C(=N/OC(=O)C3=CC=CC=C3)/C)C4=C1C=C(C=C4[N+](=O)[O-])C(=O)/C(=N/OC(=O)C5=CC=CC=C5)/C)CC

> <PUBCHEM_CACTVS_TPSA>
157

> <PUBCHEM_MONOISOTOPIC_WEIGHT>
645.21111496

> <PUBCHEM_TOTAL_CHARGE>
0

> <PUBCHEM_HEAVY_ATOM_COUNT>
48

> <PUBCHEM_ATOM_DEF_STEREO_COUNT>
0

> <PUBCHEM_ATOM_UDEF_STEREO_COUNT>
0

> <PUBCHEM_BOND_DEF_STEREO_COUNT>
2

> <PUBCHEM_BOND_UDEF_STEREO_COUNT>
0

> <PUBCHEM_ISOTOPIC_ATOM_COUNT>
0

> <PUBCHEM_COMPONENT_COUNT>
1

> <PUBCHEM_CACTVS_TAUTO_COUNT>
-1

> <PUBCHEM_COORDINATE_TYPE>
1
5
255

> <PUBCHEM_BONDANNOTATIONS>
13  17  8
13  19  8
14  18  8
14  20  8
17  21  8
18  24  8
19  25  8
20  26  8
21  27  8
24  28  8
25  27  8
26  28  8
37  39  8
37  40  8
38  41  8
38  42  8
39  43  8
40  44  8
41  45  8
42  46  8
43  47  8
44  47  8
45  48  8
46  48  8

$$$$
