 
  -OEChem-10192104202D

 96 97  0     1  0  0  0  0  0999 V2000
   10.6603    2.0000    0.0000 O   0  0  0  0  0  0  0  0  0  0  0  0
    5.4641   -2.0000    0.0000 O   0  0  0  0  0  0  0  0  0  0  0  0
   10.6603    5.0000    0.0000 O   0  0  0  0  0  0  0  0  0  0  0  0
    5.4641   -5.0000    0.0000 O   0  0  0  0  0  0  0  0  0  0  0  0
   12.3923    4.0000    0.0000 O   0  0  0  0  0  0  0  0  0  0  0  0
    3.7320   -4.0000    0.0000 O   0  0  0  0  0  0  0  0  0  0  0  0
    8.9282    4.0000    0.0000 O   0  0  0  0  0  0  0  0  0  0  0  0
    7.1962   -4.0000    0.0000 O   0  0  0  0  0  0  0  0  0  0  0  0
    8.9282    2.0000    0.0000 O   0  0  0  0  0  0  0  0  0  0  0  0
    7.1962   -2.0000    0.0000 O   0  0  0  0  0  0  0  0  0  0  0  0
   12.3923    1.0000    0.0000 O   0  0  0  0  0  0  0  0  0  0  0  0
    3.7320   -1.0000    0.0000 O   0  0  0  0  0  0  0  0  0  0  0  0
   12.3923    5.0000    0.0000 O   0  0  0  0  0  0  0  0  0  0  0  0
    3.7320   -5.0000    0.0000 O   0  0  0  0  0  0  0  0  0  0  0  0
   13.2583    2.5000    0.0000 O   0  0  0  0  0  0  0  0  0  0  0  0
    2.8660   -2.5000    0.0000 O   0  0  0  0  0  0  0  0  0  0  0  0
    9.7942    5.5000    0.0000 O   0  0  0  0  0  0  0  0  0  0  0  0
    8.0622   -2.5000    0.0000 O   0  0  0  0  0  0  0  0  0  0  0  0
   14.1244    1.0000    0.0000 O   0  0  0  0  0  0  0  0  0  0  0  0
    2.0000   -1.0000    0.0000 O   0  0  0  0  0  0  0  0  0  0  0  0
   10.6603    4.0000    0.0000 C   0  0  1  0  0  0  0  0  0  0  0  0
    5.4641   -4.0000    0.0000 C   0  0  1  0  0  0  0  0  0  0  0  0
   11.5263    3.5000    0.0000 C   0  0  2  0  0  0  0  0  0  0  0  0
    4.5981   -3.5000    0.0000 C   0  0  2  0  0  0  0  0  0  0  0  0
    9.7942    3.5000    0.0000 C   0  0  2  0  0  0  0  0  0  0  0  0
    6.3301   -3.5000    0.0000 C   0  0  2  0  0  0  0  0  0  0  0  0
   11.5263    2.5000    0.0000 C   0  0  1  0  0  0  0  0  0  0  0  0
    4.5981   -2.5000    0.0000 C   0  0  1  0  0  0  0  0  0  0  0  0
    9.7942    2.5000    0.0000 C   0  0  1  0  0  0  0  0  0  0  0  0
    6.3301   -2.5000    0.0000 C   0  0  1  0  0  0  0  0  0  0  0  0
   12.3923    2.0000    0.0000 C   0  0  0  0  0  0  0  0  0  0  0  0
    3.7320   -2.0000    0.0000 C   0  0  0  0  0  0  0  0  0  0  0  0
    8.9282    1.0000    0.0000 C   0  0  0  0  0  0  0  0  0  0  0  0
    7.1962   -1.0000    0.0000 C   0  0  0  0  0  0  0  0  0  0  0  0
   11.5263    5.5000    0.0000 C   0  0  0  0  0  0  0  0  0  0  0  0
    4.5981   -5.5000    0.0000 C   0  0  0  0  0  0  0  0  0  0  0  0
   13.2583    3.5000    0.0000 C   0  0  0  0  0  0  0  0  0  0  0  0
    2.8660   -3.5000    0.0000 C   0  0  0  0  0  0  0  0  0  0  0  0
    8.9282    5.0000    0.0000 C   0  0  0  0  0  0  0  0  0  0  0  0
    8.0622   -3.5000    0.0000 C   0  0  0  0  0  0  0  0  0  0  0  0
    8.0622    0.5000    0.0000 C   0  0  0  0  0  0  0  0  0  0  0  0
    8.0622   -0.5000    0.0000 C   0  0  0  0  0  0  0  0  0  0  0  0
   11.5263    6.5000    0.0000 C   0  0  0  0  0  0  0  0  0  0  0  0
    4.5981   -6.5000    0.0000 C   0  0  0  0  0  0  0  0  0  0  0  0
   14.1244    4.0000    0.0000 C   0  0  0  0  0  0  0  0  0  0  0  0
    2.0000   -4.0000    0.0000 C   0  0  0  0  0  0  0  0  0  0  0  0
   13.2583    0.5000    0.0000 C   0  0  0  0  0  0  0  0  0  0  0  0
    2.8660   -0.5000    0.0000 C   0  0  0  0  0  0  0  0  0  0  0  0
    8.0622    5.5000    0.0000 C   0  0  0  0  0  0  0  0  0  0  0  0
    8.9282   -4.0000    0.0000 C   0  0  0  0  0  0  0  0  0  0  0  0
   13.2583   -0.5000    0.0000 C   0  0  0  0  0  0  0  0  0  0  0  0
    2.8660    0.5000    0.0000 C   0  0  0  0  0  0  0  0  0  0  0  0
   11.1972    4.3100    0.0000 H   0  0  0  0  0  0  0  0  0  0  0  0
    4.9272   -4.3100    0.0000 H   0  0  0  0  0  0  0  0  0  0  0  0
   12.0632    3.1900    0.0000 H   0  0  0  0  0  0  0  0  0  0  0  0
    4.5981   -4.1200    0.0000 H   0  0  0  0  0  0  0  0  0  0  0  0
    9.7942    4.1200    0.0000 H   0  0  0  0  0  0  0  0  0  0  0  0
    6.3301   -4.1200    0.0000 H   0  0  0  0  0  0  0  0  0  0  0  0
   11.5263    1.8800    0.0000 H   0  0  0  0  0  0  0  0  0  0  0  0
    4.5981   -1.8800    0.0000 H   0  0  0  0  0  0  0  0  0  0  0  0
    9.2573    2.8100    0.0000 H   0  0  0  0  0  0  0  0  0  0  0  0
    6.3301   -1.8800    0.0000 H   0  0  0  0  0  0  0  0  0  0  0  0
   13.0029    1.8923    0.0000 H   0  0  0  0  0  0  0  0  0  0  0  0
   12.6044    2.5826    0.0000 H   0  0  0  0  0  0  0  0  0  0  0  0
    3.1215   -1.8923    0.0000 H   0  0  0  0  0  0  0  0  0  0  0  0
    3.5200   -2.5826    0.0000 H   0  0  0  0  0  0  0  0  0  0  0  0
    9.1403    0.4174    0.0000 H   0  0  0  0  0  0  0  0  0  0  0  0
    9.5388    1.1077    0.0000 H   0  0  0  0  0  0  0  0  0  0  0  0
    6.9841   -0.4174    0.0000 H   0  0  0  0  0  0  0  0  0  0  0  0
    6.5856   -1.1077    0.0000 H   0  0  0  0  0  0  0  0  0  0  0  0
    7.5252    0.8100    0.0000 H   0  0  0  0  0  0  0  0  0  0  0  0
    8.5991   -0.8100    0.0000 H   0  0  0  0  0  0  0  0  0  0  0  0
   12.1463    6.5000    0.0000 H   0  0  0  0  0  0  0  0  0  0  0  0
   11.5263    7.1200    0.0000 H   0  0  0  0  0  0  0  0  0  0  0  0
   10.9063    6.5000    0.0000 H   0  0  0  0  0  0  0  0  0  0  0  0
    3.9781   -6.5000    0.0000 H   0  0  0  0  0  0  0  0  0  0  0  0
    4.5981   -7.1200    0.0000 H   0  0  0  0  0  0  0  0  0  0  0  0
    5.2181   -6.5000    0.0000 H   0  0  0  0  0  0  0  0  0  0  0  0
   14.4344    3.4631    0.0000 H   0  0  0  0  0  0  0  0  0  0  0  0
   14.6613    4.3100    0.0000 H   0  0  0  0  0  0  0  0  0  0  0  0
   13.8144    4.5369    0.0000 H   0  0  0  0  0  0  0  0  0  0  0  0
    1.6900   -3.4631    0.0000 H   0  0  0  0  0  0  0  0  0  0  0  0
    1.4631   -4.3100    0.0000 H   0  0  0  0  0  0  0  0  0  0  0  0
    2.3100   -4.5369    0.0000 H   0  0  0  0  0  0  0  0  0  0  0  0
    8.3722    6.0369    0.0000 H   0  0  0  0  0  0  0  0  0  0  0  0
    7.5252    5.8100    0.0000 H   0  0  0  0  0  0  0  0  0  0  0  0
    7.7522    4.9631    0.0000 H   0  0  0  0  0  0  0  0  0  0  0  0
    8.6182   -4.5369    0.0000 H   0  0  0  0  0  0  0  0  0  0  0  0
    9.4651   -4.3100    0.0000 H   0  0  0  0  0  0  0  0  0  0  0  0
    9.2382   -3.4631    0.0000 H   0  0  0  0  0  0  0  0  0  0  0  0
   12.6383   -0.5000    0.0000 H   0  0  0  0  0  0  0  0  0  0  0  0
   13.2583   -1.1200    0.0000 H   0  0  0  0  0  0  0  0  0  0  0  0
   13.8783   -0.5000    0.0000 H   0  0  0  0  0  0  0  0  0  0  0  0
    3.4860    0.5000    0.0000 H   0  0  0  0  0  0  0  0  0  0  0  0
    2.8660    1.1200    0.0000 H   0  0  0  0  0  0  0  0  0  0  0  0
    2.2460    0.5000    0.0000 H   0  0  0  0  0  0  0  0  0  0  0  0
  1 27  1  0  0  0  0
  1 29  1  0  0  0  0
  2 28  1  0  0  0  0
  2 30  1  0  0  0  0
 21  3  1  1  0  0  0
  3 35  1  0  0  0  0
 22  4  1  1  0  0  0
  4 36  1  0  0  0  0
 23  5  1  1  0  0  0
  5 37  1  0  0  0  0
 24  6  1  1  0  0  0
  6 38  1  0  0  0  0
 25  7  1  6  0  0  0
  7 39  1  0  0  0  0
 26  8  1  6  0  0  0
  8 40  1  0  0  0  0
 29  9  1  1  0  0  0
  9 33  1  0  0  0  0
 30 10  1  1  0  0  0
 10 34  1  0  0  0  0
 11 31  1  0  0  0  0
 11 47  1  0  0  0  0
 12 32  1  0  0  0  0
 12 48  1  0  0  0  0
 13 35  2  0  0  0  0
 14 36  2  0  0  0  0
 15 37  2  0  0  0  0
 16 38  2  0  0  0  0
 17 39  2  0  0  0  0
 18 40  2  0  0  0  0
 19 47  2  0  0  0  0
 20 48  2  0  0  0  0
 21 23  1  0  0  0  0
 21 25  1  0  0  0  0
 21 53  1  0  0  0  0
 22 24  1  0  0  0  0
 22 26  1  0  0  0  0
 22 54  1  0  0  0  0
 23 27  1  0  0  0  0
 23 55  1  0  0  0  0
 24 28  1  0  0  0  0
 24 56  1  0  0  0  0
 25 29  1  0  0  0  0
 25 57  1  0  0  0  0
 26 30  1  0  0  0  0
 26 58  1  0  0  0  0
 27 31  1  1  0  0  0
 27 59  1  0  0  0  0
 28 32  1  1  0  0  0
 28 60  1  0  0  0  0
 29 61  1  0  0  0  0
 30 62  1  0  0  0  0
 31 63  1  0  0  0  0
 31 64  1  0  0  0  0
 32 65  1  0  0  0  0
 32 66  1  0  0  0  0
 33 41  1  0  0  0  0
 33 67  1  0  0  0  0
 33 68  1  0  0  0  0
 34 42  1  0  0  0  0
 34 69  1  0  0  0  0
 34 70  1  0  0  0  0
 35 43  1  0  0  0  0
 36 44  1  0  0  0  0
 37 45  1  0  0  0  0
 38 46  1  0  0  0  0
 39 49  1  0  0  0  0
 40 50  1  0  0  0  0
 41 42  2  0  0  0  0
 41 71  1  0  0  0  0
 42 72  1  0  0  0  0
 43 73  1  0  0  0  0
 43 74  1  0  0  0  0
 43 75  1  0  0  0  0
 44 76  1  0  0  0  0
 44 77  1  0  0  0  0
 44 78  1  0  0  0  0
 45 79  1  0  0  0  0
 45 80  1  0  0  0  0
 45 81  1  0  0  0  0
 46 82  1  0  0  0  0
 46 83  1  0  0  0  0
 46 84  1  0  0  0  0
 47 51  1  0  0  0  0
 48 52  1  0  0  0  0
 49 85  1  0  0  0  0
 49 86  1  0  0  0  0
 49 87  1  0  0  0  0
 50 88  1  0  0  0  0
 50 89  1  0  0  0  0
 50 90  1  0  0  0  0
 51 91  1  0  0  0  0
 51 92  1  0  0  0  0
 51 93  1  0  0  0  0
 52 94  1  0  0  0  0
 52 95  1  0  0  0  0
 52 96  1  0  0  0  0
M  END
> <PUBCHEM_COMPOUND_CID>
11814637

> <PUBCHEM_COMPOUND_CANONICALIZED>
1

> <PUBCHEM_CACTVS_COMPLEXITY>
1230

> <PUBCHEM_CACTVS_HBOND_ACCEPTOR>
20

> <PUBCHEM_CACTVS_HBOND_DONOR>
0

> <PUBCHEM_CACTVS_ROTATABLE_BOND>
24

> <PUBCHEM_CACTVS_SUBSKEYS>
AAADcfB8PgAAAAAAAAAAAAAAAAAAAAAAAAAkSAAAAAAAAAAAAAAAGgAAAAAACBSwgAMCCAAABACIACDSCAAAAAAAAAAICAAAAAARBAIAIQAiEAAFAAAGIAHAYAwAAAAAAAAAAAAAAAAAAAAAAAAAAAAAAA==

> <PUBCHEM_IUPAC_OPENEYE_NAME>
[(2R,3S,4S,5R,6R)-3,4,5-triacetoxy-6-[(E)-4-[(2R,3R,4S,5S,6R)-3,4,5-triacetoxy-6-(acetoxymethyl)tetrahydropyran-2-yl]oxybut-2-enoxy]tetrahydropyran-2-yl]methyl acetate

> <PUBCHEM_IUPAC_CAS_NAME>
acetic acid [(2R,3S,4S,5R,6R)-3,4,5-triacetyloxy-6-[(E)-4-[[(2R,3R,4S,5S,6R)-3,4,5-triacetyloxy-6-(acetyloxymethyl)-2-oxanyl]oxy]but-2-enoxy]-2-oxanyl]methyl ester

> <PUBCHEM_IUPAC_NAME_MARKUP>
[(2<I>R</I>,3<I>S</I>,4<I>S</I>,5<I>R</I>,6<I>R</I>)-3,4,5-triacetyloxy-6-[(<I>E</I>)-4-[(2<I>R</I>,3<I>R</I>,4<I>S</I>,5<I>S</I>,6<I>R</I>)-3,4,5-triacetyloxy-6-(acetyloxymethyl)oxan-2-yl]oxybut-2-enoxy]oxan-2-yl]methyl acetate

> <PUBCHEM_IUPAC_NAME>
[(2R,3S,4S,5R,6R)-3,4,5-triacetyloxy-6-[(E)-4-[(2R,3R,4S,5S,6R)-3,4,5-triacetyloxy-6-(acetyloxymethyl)oxan-2-yl]oxybut-2-enoxy]oxan-2-yl]methyl acetate

> <PUBCHEM_IUPAC_SYSTEMATIC_NAME>
[(2R,3S,4S,5R,6R)-3,4,5-triacetyloxy-6-[(E)-4-[(2R,3R,4S,5S,6R)-3,4,5-triacetyloxy-6-(acetyloxymethyl)oxan-2-yl]oxybut-2-enoxy]oxan-2-yl]methyl ethanoate

> <PUBCHEM_IUPAC_TRADITIONAL_NAME>
acetic acid [(2R,3S,4S,5R,6R)-3,4,5-triacetoxy-6-[(E)-4-[(2R,3R,4S,5S,6R)-3,4,5-triacetoxy-6-(acetoxymethyl)tetrahydropyran-2-yl]oxybut-2-enoxy]tetrahydropyran-2-yl]methyl ester

> <PUBCHEM_IUPAC_INCHI>
InChI=1S/C32H44O20/c1-15(33)43-13-23-25(45-17(3)35)27(47-19(5)37)29(49-21(7)39)31(51-23)41-11-9-10-12-42-32-30(50-22(8)40)28(48-20(6)38)26(46-18(4)36)24(52-32)14-44-16(2)34/h9-10,23-32H,11-14H2,1-8H3/b10-9+/t23-,24-,25+,26+,27+,28+,29-,30-,31-,32-/m1/s1

> <PUBCHEM_IUPAC_INCHIKEY>
DUGLBSDVTZENMW-JZIKBOPTSA-N

> <PUBCHEM_XLOGP3_AA>
-0.5

> <PUBCHEM_EXACT_MASS>
748.24259379

> <PUBCHEM_MOLECULAR_FORMULA>
C32H44O20

> <PUBCHEM_MOLECULAR_WEIGHT>
748.7

> <PUBCHEM_OPENEYE_CAN_SMILES>
CC(=O)OCC1C(C(C(C(O1)OCC=CCOC2C(C(C(C(O2)COC(=O)C)OC(=O)C)OC(=O)C)OC(=O)C)OC(=O)C)OC(=O)C)OC(=O)C

> <PUBCHEM_OPENEYE_ISO_SMILES>
CC(=O)OC[C@@H]1[C@@H]([C@@H]([C@H]([C@@H](O1)OC/C=C/CO[C@H]2[C@@H]([C@H]([C@H]([C@H](O2)COC(=O)C)OC(=O)C)OC(=O)C)OC(=O)C)OC(=O)C)OC(=O)C)OC(=O)C

> <PUBCHEM_CACTVS_TPSA>
247

> <PUBCHEM_MONOISOTOPIC_WEIGHT>
748.24259379

> <PUBCHEM_TOTAL_CHARGE>
0

> <PUBCHEM_HEAVY_ATOM_COUNT>
52

> <PUBCHEM_ATOM_DEF_STEREO_COUNT>
10

> <PUBCHEM_ATOM_UDEF_STEREO_COUNT>
0

> <PUBCHEM_BOND_DEF_STEREO_COUNT>
1

> <PUBCHEM_BOND_UDEF_STEREO_COUNT>
0

> <PUBCHEM_ISOTOPIC_ATOM_COUNT>
0

> <PUBCHEM_COMPONENT_COUNT>
1

> <PUBCHEM_CACTVS_TAUTO_COUNT>
-1

> <PUBCHEM_COORDINATE_TYPE>
1
5
255

> <PUBCHEM_BONDANNOTATIONS>
30  10  5
27  31  5
28  32  5
21  3  5
22  4  5
23  5  5
24  6  5
25  7  6
26  8  6
29  9  5

$$$$
