 
  -OEChem-10192103282D

 31 30  0     1  0  0  0  0  0999 V2000
    7.1962   -1.6550    0.0000 O   0  0  0  0  0  0  0  0  0  0  0  0
    4.5981   -0.1550    0.0000 O   0  0  0  0  0  0  0  0  0  0  0  0
    6.3301   -0.1550    0.0000 C   0  0  0  0  0  0  0  0  0  0  0  0
    7.1962   -0.6550    0.0000 C   0  0  3  0  0  0  0  0  0  0  0  0
    4.5981    0.8450    0.0000 C   0  0  3  0  0  0  0  0  0  0  0  0
    6.3301    0.8450    0.0000 C   0  0  0  0  0  0  0  0  0  0  0  0
    5.4641    1.3450    0.0000 C   0  0  0  0  0  0  0  0  0  0  0  0
    3.7320    1.3450    0.0000 C   0  0  0  0  0  0  0  0  0  0  0  0
    2.8660   -0.1550    0.0000 C   0  0  0  0  0  0  0  0  0  0  0  0
    2.8660    0.8450    0.0000 C   0  0  0  0  0  0  0  0  0  0  0  0
    8.0622   -0.1550    0.0000 C   0  0  0  0  0  0  0  0  0  0  0  0
    2.0000   -0.6550    0.0000 C   0  0  0  0  0  0  0  0  0  0  0  0
    8.9282   -0.6550    0.0000 C   0  0  0  0  0  0  0  0  0  0  0  0
    5.7196   -0.0473    0.0000 H   0  0  0  0  0  0  0  0  0  0  0  0
    6.1181   -0.7376    0.0000 H   0  0  0  0  0  0  0  0  0  0  0  0
    6.6592   -0.9650    0.0000 H   0  0  0  0  0  0  0  0  0  0  0  0
    5.1350    0.5350    0.0000 H   0  0  0  0  0  0  0  0  0  0  0  0
    6.8671    1.1550    0.0000 H   0  0  0  0  0  0  0  0  0  0  0  0
    5.4641    1.9650    0.0000 H   0  0  0  0  0  0  0  0  0  0  0  0
    3.7320    1.9650    0.0000 H   0  0  0  0  0  0  0  0  0  0  0  0
    3.0781   -0.7376    0.0000 H   0  0  0  0  0  0  0  0  0  0  0  0
    3.4766   -0.0473    0.0000 H   0  0  0  0  0  0  0  0  0  0  0  0
    2.3291    1.1550    0.0000 H   0  0  0  0  0  0  0  0  0  0  0  0
    8.0622    0.4650    0.0000 H   0  0  0  0  0  0  0  0  0  0  0  0
    1.6900   -0.1181    0.0000 H   0  0  0  0  0  0  0  0  0  0  0  0
    1.4631   -0.9650    0.0000 H   0  0  0  0  0  0  0  0  0  0  0  0
    2.3100   -1.1919    0.0000 H   0  0  0  0  0  0  0  0  0  0  0  0
    7.7331   -1.9650    0.0000 H   0  0  0  0  0  0  0  0  0  0  0  0
    4.0611   -0.4650    0.0000 H   0  0  0  0  0  0  0  0  0  0  0  0
    8.9282   -1.2750    0.0000 H   0  0  0  0  0  0  0  0  0  0  0  0
    9.4651   -0.3450    0.0000 H   0  0  0  0  0  0  0  0  0  0  0  0
  1  4  1  0  0  0  0
  1 28  1  0  0  0  0
  2  5  1  0  0  0  0
  2 29  1  0  0  0  0
  3  4  1  0  0  0  0
  3  6  1  0  0  0  0
  3 14  1  0  0  0  0
  3 15  1  0  0  0  0
  4 11  1  0  0  0  0
  4 16  1  0  0  0  0
  5  7  1  0  0  0  0
  5  8  1  0  0  0  0
  5 17  1  0  0  0  0
  6  7  2  0  0  0  0
  6 18  1  0  0  0  0
  7 19  1  0  0  0  0
  8 10  2  0  0  0  0
  8 20  1  0  0  0  0
  9 10  1  0  0  0  0
  9 12  1  0  0  0  0
  9 21  1  0  0  0  0
  9 22  1  0  0  0  0
 10 23  1  0  0  0  0
 11 13  2  0  0  0  0
 11 24  1  0  0  0  0
 12 25  1  0  0  0  0
 12 26  1  0  0  0  0
 12 27  1  0  0  0  0
 13 30  1  0  0  0  0
 13 31  1  0  0  0  0
M  END
> <PUBCHEM_COMPOUND_CID>
121232664

> <PUBCHEM_COMPOUND_CANONICALIZED>
1

> <PUBCHEM_CACTVS_COMPLEXITY>
183

> <PUBCHEM_CACTVS_HBOND_ACCEPTOR>
2

> <PUBCHEM_CACTVS_HBOND_DONOR>
2

> <PUBCHEM_CACTVS_ROTATABLE_BOND>
6

> <PUBCHEM_CACTVS_SUBSKEYS>
AAADceBwMAAAAAAAAAAAAAAAAAAAAAAAAAAAAAAAAAAAAAAAAAAAGgAACAAACBSggAICAAAAAgCAACBCAAAAAAAgAAAICAAAAAgAFAAAAQAAUAAAwAAIEAIAAAAAAAAAAAAAAAAAAAAAAAAAAAAAAAAAAA==

> <PUBCHEM_IUPAC_OPENEYE_NAME>
(5Z,8Z)-undeca-1,5,8-triene-3,7-diol

> <PUBCHEM_IUPAC_CAS_NAME>
(5Z,8Z)-undeca-1,5,8-triene-3,7-diol

> <PUBCHEM_IUPAC_NAME_MARKUP>
(5<I>Z</I>,8<I>Z</I>)-undeca-1,5,8-triene-3,7-diol

> <PUBCHEM_IUPAC_NAME>
(5Z,8Z)-undeca-1,5,8-triene-3,7-diol

> <PUBCHEM_IUPAC_SYSTEMATIC_NAME>
(5Z,8Z)-undeca-1,5,8-triene-3,7-diol

> <PUBCHEM_IUPAC_TRADITIONAL_NAME>
(5Z,8Z)-undeca-1,5,8-triene-3,7-diol

> <PUBCHEM_IUPAC_INCHI>
InChI=1S/C11H18O2/c1-3-5-7-11(13)9-6-8-10(12)4-2/h4-7,9-13H,2-3,8H2,1H3/b7-5-,9-6-

> <PUBCHEM_IUPAC_INCHIKEY>
FYXKYWVJJJIYHK-BSIYMUDXSA-N

> <PUBCHEM_XLOGP3_AA>
1.8

> <PUBCHEM_EXACT_MASS>
182.130679813

> <PUBCHEM_MOLECULAR_FORMULA>
C11H18O2

> <PUBCHEM_MOLECULAR_WEIGHT>
182.26

> <PUBCHEM_OPENEYE_CAN_SMILES>
CCC=CC(C=CCC(C=C)O)O

> <PUBCHEM_OPENEYE_ISO_SMILES>
CC/C=C\C(/C=C\CC(C=C)O)O

> <PUBCHEM_CACTVS_TPSA>
40.5

> <PUBCHEM_MONOISOTOPIC_WEIGHT>
182.130679813

> <PUBCHEM_TOTAL_CHARGE>
0

> <PUBCHEM_HEAVY_ATOM_COUNT>
13

> <PUBCHEM_ATOM_DEF_STEREO_COUNT>
0

> <PUBCHEM_ATOM_UDEF_STEREO_COUNT>
2

> <PUBCHEM_BOND_DEF_STEREO_COUNT>
2

> <PUBCHEM_BOND_UDEF_STEREO_COUNT>
0

> <PUBCHEM_ISOTOPIC_ATOM_COUNT>
0

> <PUBCHEM_COMPONENT_COUNT>
1

> <PUBCHEM_CACTVS_TAUTO_COUNT>
-1

> <PUBCHEM_COORDINATE_TYPE>
1
5
255

> <PUBCHEM_BONDANNOTATIONS>
4  1  3
5  2  3

$$$$
