 
  -OEChem-10192103462D

 71 75  0     1  0  0  0  0  0999 V2000
   16.7121   -1.1237    0.0000 O   0  0  0  0  0  0  0  0  0  0  0  0
    4.8160    0.5691    0.0000 O   0  0  0  0  0  0  0  0  0  0  0  0
   18.9721    0.2519    0.0000 O   0  0  0  0  0  0  0  0  0  0  0  0
    2.1893    0.2519    0.0000 O   0  0  0  0  0  0  0  0  0  0  0  0
   17.6281    1.7330    0.0000 O   0  0  0  0  0  0  0  0  0  0  0  0
    2.8000   -1.6526    0.0000 O   0  0  0  0  0  0  0  0  0  0  0  0
   15.6734    1.3097    0.0000 O   0  0  0  0  0  0  0  0  0  0  0  0
    4.7547   -2.0759    0.0000 O   0  0  0  0  0  0  0  0  0  0  0  0
   18.0561   -2.6048    0.0000 O   0  0  0  0  0  0  0  0  0  0  0  0
    4.2053    2.4736    0.0000 O   0  0  0  0  0  0  0  0  0  0  0  0
   10.5807    0.1060    0.0000 N   0  0  0  0  0  0  0  0  0  0  0  0
   17.9948    0.0402    0.0000 C   0  0  1  0  0  0  0  0  0  0  0  0
    3.1667    0.0402    0.0000 C   0  0  1  0  0  0  0  0  0  0  0  0
   17.3228    0.7808    0.0000 C   0  0  1  0  0  0  0  0  0  0  0  0
    3.4720   -0.9120    0.0000 C   0  0  1  0  0  0  0  0  0  0  0  0
   17.6894   -0.9120    0.0000 C   0  0  1  0  0  0  0  0  0  0  0  0
    3.8386    0.7808    0.0000 C   0  0  1  0  0  0  0  0  0  0  0  0
   16.3454    0.5691    0.0000 C   0  0  1  0  0  0  0  0  0  0  0  0
    4.4493   -1.1237    0.0000 C   0  0  1  0  0  0  0  0  0  0  0  0
   16.0401   -0.3831    0.0000 C   0  0  1  0  0  0  0  0  0  0  0  0
    5.1213   -0.3831    0.0000 C   0  0  1  0  0  0  0  0  0  0  0  0
   18.3614   -1.6526    0.0000 C   0  0  0  0  0  0  0  0  0  0  0  0
    3.5333    1.7330    0.0000 C   0  0  0  0  0  0  0  0  0  0  0  0
   15.0627   -0.5948    0.0000 C   0  0  0  0  0  0  0  0  0  0  0  0
    6.0987   -0.5948    0.0000 C   0  0  0  0  0  0  0  0  0  0  0  0
   11.3897   -0.4817    0.0000 C   0  0  0  0  0  0  0  0  0  0  0  0
    9.7717   -0.4817    0.0000 C   0  0  0  0  0  0  0  0  0  0  0  0
   11.0807   -1.4328    0.0000 C   0  0  0  0  0  0  0  0  0  0  0  0
   10.0807   -1.4328    0.0000 C   0  0  0  0  0  0  0  0  0  0  0  0
   13.1081   -1.0182    0.0000 C   0  0  0  0  0  0  0  0  0  0  0  0
    8.0534   -1.0182    0.0000 C   0  0  0  0  0  0  0  0  0  0  0  0
   12.4051   -0.2495    0.0000 C   0  0  0  0  0  0  0  0  0  0  0  0
    8.7563   -0.2495    0.0000 C   0  0  0  0  0  0  0  0  0  0  0  0
   14.0854   -0.8065    0.0000 C   0  0  0  0  0  0  0  0  0  0  0  0
    7.0760   -0.8065    0.0000 C   0  0  0  0  0  0  0  0  0  0  0  0
   11.7657   -2.2175    0.0000 C   0  0  0  0  0  0  0  0  0  0  0  0
    9.3957   -2.2175    0.0000 C   0  0  0  0  0  0  0  0  0  0  0  0
   12.7862   -2.0088    0.0000 C   0  0  0  0  0  0  0  0  0  0  0  0
    8.3752   -2.0088    0.0000 C   0  0  0  0  0  0  0  0  0  0  0  0
   10.5807    1.1060    0.0000 C   0  0  0  0  0  0  0  0  0  0  0  0
   18.1841    0.6306    0.0000 H   0  0  0  0  0  0  0  0  0  0  0  0
    2.7500   -0.4189    0.0000 H   0  0  0  0  0  0  0  0  0  0  0  0
   16.9061    1.2399    0.0000 H   0  0  0  0  0  0  0  0  0  0  0  0
    3.6613   -1.5024    0.0000 H   0  0  0  0  0  0  0  0  0  0  0  0
   17.5001   -1.5024    0.0000 H   0  0  0  0  0  0  0  0  0  0  0  0
    4.2553    1.2399    0.0000 H   0  0  0  0  0  0  0  0  0  0  0  0
   15.7395    0.4379    0.0000 H   0  0  0  0  0  0  0  0  0  0  0  0
    5.0553   -1.2549    0.0000 H   0  0  0  0  0  0  0  0  0  0  0  0
   15.8508   -0.9735    0.0000 H   0  0  0  0  0  0  0  0  0  0  0  0
    5.5380    0.0760    0.0000 H   0  0  0  0  0  0  0  0  0  0  0  0
   18.9100   -1.9415    0.0000 H   0  0  0  0  0  0  0  0  0  0  0  0
   18.7412   -1.1626    0.0000 H   0  0  0  0  0  0  0  0  0  0  0  0
    3.1535    2.2231    0.0000 H   0  0  0  0  0  0  0  0  0  0  0  0
    2.9848    1.4441    0.0000 H   0  0  0  0  0  0  0  0  0  0  0  0
   19.3887   -0.2072    0.0000 H   0  0  0  0  0  0  0  0  0  0  0  0
    2.0000    0.8423    0.0000 H   0  0  0  0  0  0  0  0  0  0  0  0
   18.2341    1.8643    0.0000 H   0  0  0  0  0  0  0  0  0  0  0  0
    2.1941   -1.5213    0.0000 H   0  0  0  0  0  0  0  0  0  0  0  0
   15.8628    1.9000    0.0000 H   0  0  0  0  0  0  0  0  0  0  0  0
    4.3381   -2.5351    0.0000 H   0  0  0  0  0  0  0  0  0  0  0  0
   18.4727   -3.0640    0.0000 H   0  0  0  0  0  0  0  0  0  0  0  0
    4.0160    3.0640    0.0000 H   0  0  0  0  0  0  0  0  0  0  0  0
   12.5899    0.3423    0.0000 H   0  0  0  0  0  0  0  0  0  0  0  0
    8.5715    0.3423    0.0000 H   0  0  0  0  0  0  0  0  0  0  0  0
   11.5673   -2.8049    0.0000 H   0  0  0  0  0  0  0  0  0  0  0  0
    9.5941   -2.8049    0.0000 H   0  0  0  0  0  0  0  0  0  0  0  0
   13.1993   -2.4712    0.0000 H   0  0  0  0  0  0  0  0  0  0  0  0
    7.9622   -2.4712    0.0000 H   0  0  0  0  0  0  0  0  0  0  0  0
   11.2007    1.1060    0.0000 H   0  0  0  0  0  0  0  0  0  0  0  0
   10.5807    1.7260    0.0000 H   0  0  0  0  0  0  0  0  0  0  0  0
    9.9607    1.1060    0.0000 H   0  0  0  0  0  0  0  0  0  0  0  0
  1 16  1  0  0  0  0
  1 20  1  0  0  0  0
  2 17  1  0  0  0  0
  2 21  1  0  0  0  0
 12  3  1  6  0  0  0
  3 55  1  0  0  0  0
 13  4  1  6  0  0  0
  4 56  1  0  0  0  0
 14  5  1  1  0  0  0
  5 57  1  0  0  0  0
 15  6  1  1  0  0  0
  6 58  1  0  0  0  0
 18  7  1  1  0  0  0
  7 59  1  0  0  0  0
 19  8  1  1  0  0  0
  8 60  1  0  0  0  0
  9 22  1  0  0  0  0
  9 61  1  0  0  0  0
 10 23  1  0  0  0  0
 10 62  1  0  0  0  0
 11 26  1  0  0  0  0
 11 27  1  0  0  0  0
 11 40  1  0  0  0  0
 12 14  1  0  0  0  0
 12 16  1  0  0  0  0
 12 41  1  0  0  0  0
 13 15  1  0  0  0  0
 13 17  1  0  0  0  0
 13 42  1  0  0  0  0
 14 18  1  0  0  0  0
 14 43  1  0  0  0  0
 15 19  1  0  0  0  0
 15 44  1  0  0  0  0
 16 22  1  1  0  0  0
 16 45  1  0  0  0  0
 17 23  1  1  0  0  0
 17 46  1  0  0  0  0
 18 20  1  0  0  0  0
 18 47  1  0  0  0  0
 19 21  1  0  0  0  0
 19 48  1  0  0  0  0
 20 24  1  6  0  0  0
 20 49  1  0  0  0  0
 21 25  1  6  0  0  0
 21 50  1  0  0  0  0
 22 51  1  0  0  0  0
 22 52  1  0  0  0  0
 23 53  1  0  0  0  0
 23 54  1  0  0  0  0
 24 34  3  0  0  0  0
 25 35  3  0  0  0  0
 26 28  2  0  0  0  0
 26 32  1  0  0  0  0
 27 29  2  0  0  0  0
 27 33  1  0  0  0  0
 28 29  1  0  0  0  0
 28 36  1  0  0  0  0
 29 37  1  0  0  0  0
 30 32  2  0  0  0  0
 30 34  1  0  0  0  0
 30 38  1  0  0  0  0
 31 33  2  0  0  0  0
 31 35  1  0  0  0  0
 31 39  1  0  0  0  0
 32 63  1  0  0  0  0
 33 64  1  0  0  0  0
 36 38  2  0  0  0  0
 36 65  1  0  0  0  0
 37 39  2  0  0  0  0
 37 66  1  0  0  0  0
 38 67  1  0  0  0  0
 39 68  1  0  0  0  0
 40 69  1  0  0  0  0
 40 70  1  0  0  0  0
 40 71  1  0  0  0  0
M  END
> <PUBCHEM_COMPOUND_CID>
76684513

> <PUBCHEM_COMPOUND_CANONICALIZED>
1

> <PUBCHEM_CACTVS_COMPLEXITY>
951

> <PUBCHEM_CACTVS_HBOND_ACCEPTOR>
10

> <PUBCHEM_CACTVS_HBOND_DONOR>
8

> <PUBCHEM_CACTVS_ROTATABLE_BOND>
4

> <PUBCHEM_CACTVS_SUBSKEYS>
AAADceB6PAAAAAAAAAAAAAAAAAAAAWAAAAA0aIEAAAAAAFgB/AAAHgAACAAADByhngYywPMMFgDgEyRiRAiCgCAhAiAI2CA4ZJgJMOLAkZGGYAhlgADLyAfQ4OQOwAAAQAACAACAAACAAAQAAAAAAAAAAA==

> <PUBCHEM_IUPAC_OPENEYE_NAME>
(2R,3S,4R,5S,6R)-2-(hydroxymethyl)-6-[2-[9-methyl-7-[2-[(2R,3S,4R,5S,6R)-3,4,5-trihydroxy-6-(hydroxymethyl)tetrahydropyran-2-yl]ethynyl]carbazol-2-yl]ethynyl]tetrahydropyran-3,4,5-triol

> <PUBCHEM_IUPAC_CAS_NAME>
(2R,3S,4R,5S,6R)-2-(hydroxymethyl)-6-[2-[9-methyl-7-[2-[(2R,3S,4R,5S,6R)-3,4,5-trihydroxy-6-(hydroxymethyl)-2-oxanyl]ethynyl]-2-carbazolyl]ethynyl]oxane-3,4,5-triol

> <PUBCHEM_IUPAC_NAME_MARKUP>
(2<I>R</I>,3<I>S</I>,4<I>R</I>,5<I>S</I>,6<I>R</I>)-2-(hydroxymethyl)-6-[2-[9-methyl-7-[2-[(2<I>R</I>,3<I>S</I>,4<I>R</I>,5<I>S</I>,6<I>R</I>)-3,4,5-trihydroxy-6-(hydroxymethyl)oxan-2-yl]ethynyl]carbazol-2-yl]ethynyl]oxane-3,4,5-triol

> <PUBCHEM_IUPAC_NAME>
(2R,3S,4R,5S,6R)-2-(hydroxymethyl)-6-[2-[9-methyl-7-[2-[(2R,3S,4R,5S,6R)-3,4,5-trihydroxy-6-(hydroxymethyl)oxan-2-yl]ethynyl]carbazol-2-yl]ethynyl]oxane-3,4,5-triol

> <PUBCHEM_IUPAC_SYSTEMATIC_NAME>
(2R,3S,4R,5S,6R)-2-(hydroxymethyl)-6-[2-[7-[2-[(2R,3S,4R,5S,6R)-6-(hydroxymethyl)-3,4,5-tris(oxidanyl)oxan-2-yl]ethynyl]-9-methyl-carbazol-2-yl]ethynyl]oxane-3,4,5-triol

> <PUBCHEM_IUPAC_TRADITIONAL_NAME>
(2R,3S,4R,5S,6R)-2-methylol-6-[2-[9-methyl-7-[2-[(2R,3S,4R,5S,6R)-3,4,5-trihydroxy-6-methylol-tetrahydropyran-2-yl]ethynyl]carbazol-2-yl]ethynyl]tetrahydropyran-3,4,5-triol

> <PUBCHEM_IUPAC_INCHI>
InChI=1S/C29H31NO10/c1-30-18-10-14(4-8-20-24(33)28(37)26(35)22(12-31)39-20)2-6-16(18)17-7-3-15(11-19(17)30)5-9-21-25(34)29(38)27(36)23(13-32)40-21/h2-3,6-7,10-11,20-29,31-38H,12-13H2,1H3/t20-,21-,22-,23-,24-,25-,26-,27-,28-,29-/m1/s1

> <PUBCHEM_IUPAC_INCHIKEY>
UFACONJNUYYKPL-VEDGSLNGSA-N

> <PUBCHEM_XLOGP3_AA>
-0.8

> <PUBCHEM_EXACT_MASS>
553.19479619

> <PUBCHEM_MOLECULAR_FORMULA>
C29H31NO10

> <PUBCHEM_MOLECULAR_WEIGHT>
553.6

> <PUBCHEM_OPENEYE_CAN_SMILES>
CN1C2=C(C=CC(=C2)C#CC3C(C(C(C(O3)CO)O)O)O)C4=C1C=C(C=C4)C#CC5C(C(C(C(O5)CO)O)O)O

> <PUBCHEM_OPENEYE_ISO_SMILES>
CN1C2=C(C=CC(=C2)C#C[C@@H]3[C@H]([C@H]([C@@H]([C@H](O3)CO)O)O)O)C4=C1C=C(C=C4)C#C[C@@H]5[C@H]([C@H]([C@@H]([C@H](O5)CO)O)O)O

> <PUBCHEM_CACTVS_TPSA>
185

> <PUBCHEM_MONOISOTOPIC_WEIGHT>
553.19479619

> <PUBCHEM_TOTAL_CHARGE>
0

> <PUBCHEM_HEAVY_ATOM_COUNT>
40

> <PUBCHEM_ATOM_DEF_STEREO_COUNT>
10

> <PUBCHEM_ATOM_UDEF_STEREO_COUNT>
0

> <PUBCHEM_BOND_DEF_STEREO_COUNT>
0

> <PUBCHEM_BOND_UDEF_STEREO_COUNT>
0

> <PUBCHEM_ISOTOPIC_ATOM_COUNT>
0

> <PUBCHEM_COMPONENT_COUNT>
1

> <PUBCHEM_CACTVS_TAUTO_COUNT>
-1

> <PUBCHEM_COORDINATE_TYPE>
1
5
255

> <PUBCHEM_BONDANNOTATIONS>
11  26  8
11  27  8
16  22  5
17  23  5
20  24  6
21  25  6
26  28  8
26  32  8
27  29  8
27  33  8
28  29  8
28  36  8
29  37  8
12  3  6
30  32  8
30  38  8
31  33  8
31  39  8
36  38  8
37  39  8
13  4  6
14  5  5
15  6  5
18  7  5
19  8  5

$$$$
