 
  -OEChem-10192104152D

 87 90  0     1  0  0  0  0  0999 V2000
    6.8392    0.9673    0.0000 O   0  0  0  0  0  0  0  0  0  0  0  0
    5.0565   -3.2543    0.0000 O   0  0  0  0  0  0  0  0  0  0  0  0
    2.4339    1.2971    0.0000 O   0  0  0  0  0  0  0  0  0  0  0  0
    7.9097   -2.3273    0.0000 O   0  0  0  0  0  0  0  0  0  0  0  0
    4.6098    2.9747    0.0000 O   0  0  0  0  0  0  0  0  0  0  0  0
    2.8271   -1.2469    0.0000 O   0  0  0  0  0  0  0  0  0  0  0  0
    5.7687    4.2618    0.0000 O   0  0  0  0  0  0  0  0  0  0  0  0
    8.4449   -3.9746    0.0000 O   0  0  0  0  0  0  0  0  0  0  0  0
    4.0871   -1.8890    0.0000 O   0  0  0  0  0  0  0  0  0  0  0  0
    6.0961    1.6364    0.0000 C   0  0  1  0  0  0  0  0  0  0  0  0
    6.0076   -2.9453    0.0000 C   0  0  1  0  0  0  0  0  0  0  0  0
    3.2429    0.7094    0.0000 C   0  0  1  0  0  0  0  0  0  0  0  0
    6.6313   -0.0109    0.0000 C   0  0  2  0  0  0  0  0  0  0  0  0
    4.3134   -2.5852    0.0000 C   0  0  2  0  0  0  0  0  0  0  0  0
    2.7429    2.2482    0.0000 C   0  0  2  0  0  0  0  0  0  0  0  0
    7.0929    1.5748    0.0000 C   0  0  0  0  0  0  0  0  0  0  0  0
    5.8421   -1.9604    0.0000 C   0  0  0  0  0  0  0  0  0  0  0  0
    4.0519    1.2971    0.0000 C   0  0  0  0  0  0  0  0  0  0  0  0
    7.4016    0.6249    0.0000 C   0  0  0  0  0  0  0  0  0  0  0  0
    4.8651   -1.7527    0.0000 C   0  0  0  0  0  0  0  0  0  0  0  0
    3.7429    2.2482    0.0000 C   0  0  0  0  0  0  0  0  0  0  0  0
    6.3040    2.6146    0.0000 C   0  0  1  0  0  0  0  0  0  0  0  0
    6.7507   -3.6144    0.0000 C   0  0  1  0  0  0  0  0  0  0  0  0
    3.9860    0.0402    0.0000 C   0  0  1  0  0  0  0  0  0  0  0  0
    7.3744   -0.6800    0.0000 C   0  0  0  0  0  0  0  0  0  0  0  0
    3.3623   -2.8942    0.0000 C   0  0  0  0  0  0  0  0  0  0  0  0
    2.9508    3.2263    0.0000 C   0  0  0  0  0  0  0  0  0  0  0  0
    7.1665   -1.6582    0.0000 C   0  0  1  0  0  0  0  0  0  0  0  0
    2.6192   -2.2251    0.0000 C   0  0  1  0  0  0  0  0  0  0  0  0
    3.8666    3.6438    0.0000 C   0  0  1  0  0  0  0  0  0  0  0  0
    5.5608    3.2837    0.0000 C   0  0  0  0  0  0  0  0  0  0  0  0
    7.7018   -3.3054    0.0000 C   0  0  0  0  0  0  0  0  0  0  0  0
    3.7781   -0.9379    0.0000 C   0  0  0  0  0  0  0  0  0  0  0  0
    6.7580    3.5056    0.0000 C   0  0  0  0  0  0  0  0  0  0  0  0
    7.2953   -4.4531    0.0000 C   0  0  0  0  0  0  0  0  0  0  0  0
    4.8770   -0.4138    0.0000 C   0  0  0  0  0  0  0  0  0  0  0  0
    6.7125   -2.5492    0.0000 C   0  0  0  0  0  0  0  0  0  0  0  0
    2.1651   -3.1161    0.0000 C   0  0  0  0  0  0  0  0  0  0  0  0
    3.2793    4.4531    0.0000 C   0  0  0  0  0  0  0  0  0  0  0  0
    5.4193    1.1221    0.0000 H   0  0  0  0  0  0  0  0  0  0  0  0
    6.1484   -3.7836    0.0000 H   0  0  0  0  0  0  0  0  0  0  0  0
    2.5552    0.2097    0.0000 H   0  0  0  0  0  0  0  0  0  0  0  0
    5.9758   -0.5520    0.0000 H   0  0  0  0  0  0  0  0  0  0  0  0
    3.8438   -3.2937    0.0000 H   0  0  0  0  0  0  0  0  0  0  0  0
    1.9218    2.4682    0.0000 H   0  0  0  0  0  0  0  0  0  0  0  0
    7.7019    1.6912    0.0000 H   0  0  0  0  0  0  0  0  0  0  0  0
    7.0535    2.1935    0.0000 H   0  0  0  0  0  0  0  0  0  0  0  0
    6.4616   -1.9348    0.0000 H   0  0  0  0  0  0  0  0  0  0  0  0
    5.8942   -1.3426    0.0000 H   0  0  0  0  0  0  0  0  0  0  0  0
    4.3619    0.7602    0.0000 H   0  0  0  0  0  0  0  0  0  0  0  0
    4.6183    1.5493    0.0000 H   0  0  0  0  0  0  0  0  0  0  0  0
    7.7334    0.1012    0.0000 H   0  0  0  0  0  0  0  0  0  0  0  0
    7.9626    0.8887    0.0000 H   0  0  0  0  0  0  0  0  0  0  0  0
    5.0688   -1.1671    0.0000 H   0  0  0  0  0  0  0  0  0  0  0  0
    4.3096   -1.4774    0.0000 H   0  0  0  0  0  0  0  0  0  0  0  0
    4.3493    2.3771    0.0000 H   0  0  0  0  0  0  0  0  0  0  0  0
    3.6781    2.8648    0.0000 H   0  0  0  0  0  0  0  0  0  0  0  0
    6.9231    2.6470    0.0000 H   0  0  0  0  0  0  0  0  0  0  0  0
    6.4692   -4.1669    0.0000 H   0  0  0  0  0  0  0  0  0  0  0  0
    4.5060    0.3779    0.0000 H   0  0  0  0  0  0  0  0  0  0  0  0
    7.9493   -0.9123    0.0000 H   0  0  0  0  0  0  0  0  0  0  0  0
    7.7030   -0.1542    0.0000 H   0  0  0  0  0  0  0  0  0  0  0  0
    2.8737   -3.2759    0.0000 H   0  0  0  0  0  0  0  0  0  0  0  0
    3.6534   -3.4416    0.0000 H   0  0  0  0  0  0  0  0  0  0  0  0
    2.8183    3.8320    0.0000 H   0  0  0  0  0  0  0  0  0  0  0  0
    2.3308    3.2245    0.0000 H   0  0  0  0  0  0  0  0  0  0  0  0
    6.5474   -1.6906    0.0000 H   0  0  0  0  0  0  0  0  0  0  0  0
    2.0000   -2.2575    0.0000 H   0  0  0  0  0  0  0  0  0  0  0  0
    4.1191    4.2101    0.0000 H   0  0  0  0  0  0  0  0  0  0  0  0
    7.3104    3.2241    0.0000 H   0  0  0  0  0  0  0  0  0  0  0  0
    7.0394    4.0580    0.0000 H   0  0  0  0  0  0  0  0  0  0  0  0
    6.2055    3.7870    0.0000 H   0  0  0  0  0  0  0  0  0  0  0  0
    6.7754   -4.7908    0.0000 H   0  0  0  0  0  0  0  0  0  0  0  0
    7.6330   -4.9731    0.0000 H   0  0  0  0  0  0  0  0  0  0  0  0
    7.8153   -4.1154    0.0000 H   0  0  0  0  0  0  0  0  0  0  0  0
    4.5956   -0.9662    0.0000 H   0  0  0  0  0  0  0  0  0  0  0  0
    5.4295   -0.6952    0.0000 H   0  0  0  0  0  0  0  0  0  0  0  0
    5.1585    0.1387    0.0000 H   0  0  0  0  0  0  0  0  0  0  0  0
    6.1601   -2.2677    0.0000 H   0  0  0  0  0  0  0  0  0  0  0  0
    6.4310   -3.1016    0.0000 H   0  0  0  0  0  0  0  0  0  0  0  0
    7.2649   -2.8306    0.0000 H   0  0  0  0  0  0  0  0  0  0  0  0
    1.6127   -2.8346    0.0000 H   0  0  0  0  0  0  0  0  0  0  0  0
    1.8836   -3.6685    0.0000 H   0  0  0  0  0  0  0  0  0  0  0  0
    2.7176   -3.3976    0.0000 H   0  0  0  0  0  0  0  0  0  0  0  0
    3.7810    4.8173    0.0000 H   0  0  0  0  0  0  0  0  0  0  0  0
    2.9151    4.9549    0.0000 H   0  0  0  0  0  0  0  0  0  0  0  0
    2.7775    4.0890    0.0000 H   0  0  0  0  0  0  0  0  0  0  0  0
  1 10  1  0  0  0  0
  1 13  1  0  0  0  0
  2 11  1  0  0  0  0
  2 14  1  0  0  0  0
  3 12  1  0  0  0  0
  3 15  1  0  0  0  0
  4 28  1  0  0  0  0
  4 32  1  0  0  0  0
  5 30  1  0  0  0  0
  5 31  1  0  0  0  0
  6 29  1  0  0  0  0
  6 33  1  0  0  0  0
  7 31  2  0  0  0  0
  8 32  2  0  0  0  0
  9 33  2  0  0  0  0
 10 16  1  0  0  0  0
 10 22  1  0  0  0  0
 10 40  1  1  0  0  0
 11 17  1  0  0  0  0
 11 23  1  0  0  0  0
 11 41  1  6  0  0  0
 12 18  1  0  0  0  0
 12 24  1  0  0  0  0
 12 42  1  6  0  0  0
 13 19  1  0  0  0  0
 13 25  1  0  0  0  0
 13 43  1  1  0  0  0
 14 20  1  0  0  0  0
 14 26  1  0  0  0  0
 14 44  1  6  0  0  0
 15 21  1  0  0  0  0
 15 27  1  0  0  0  0
 15 45  1  6  0  0  0
 16 19  1  0  0  0  0
 16 46  1  0  0  0  0
 16 47  1  0  0  0  0
 17 20  1  0  0  0  0
 17 48  1  0  0  0  0
 17 49  1  0  0  0  0
 18 21  1  0  0  0  0
 18 50  1  0  0  0  0
 18 51  1  0  0  0  0
 19 52  1  0  0  0  0
 19 53  1  0  0  0  0
 20 54  1  0  0  0  0
 20 55  1  0  0  0  0
 21 56  1  0  0  0  0
 21 57  1  0  0  0  0
 22 31  1  0  0  0  0
 22 34  1  1  0  0  0
 22 58  1  0  0  0  0
 23 32  1  0  0  0  0
 23 35  1  1  0  0  0
 23 59  1  0  0  0  0
 24 33  1  0  0  0  0
 24 36  1  6  0  0  0
 24 60  1  0  0  0  0
 25 28  1  0  0  0  0
 25 61  1  0  0  0  0
 25 62  1  0  0  0  0
 26 29  1  0  0  0  0
 26 63  1  0  0  0  0
 26 64  1  0  0  0  0
 27 30  1  0  0  0  0
 27 65  1  0  0  0  0
 27 66  1  0  0  0  0
 28 37  1  6  0  0  0
 28 67  1  0  0  0  0
 29 38  1  1  0  0  0
 29 68  1  0  0  0  0
 30 39  1  1  0  0  0
 30 69  1  0  0  0  0
 34 70  1  0  0  0  0
 34 71  1  0  0  0  0
 34 72  1  0  0  0  0
 35 73  1  0  0  0  0
 35 74  1  0  0  0  0
 35 75  1  0  0  0  0
 36 76  1  0  0  0  0
 36 77  1  0  0  0  0
 36 78  1  0  0  0  0
 37 79  1  0  0  0  0
 37 80  1  0  0  0  0
 37 81  1  0  0  0  0
 38 82  1  0  0  0  0
 38 83  1  0  0  0  0
 38 84  1  0  0  0  0
 39 85  1  0  0  0  0
 39 86  1  0  0  0  0
 39 87  1  0  0  0  0
M  END
> <PUBCHEM_COMPOUND_CID>
11168867

> <PUBCHEM_COMPOUND_CANONICALIZED>
1

> <PUBCHEM_CACTVS_COMPLEXITY>
752

> <PUBCHEM_CACTVS_HBOND_ACCEPTOR>
9

> <PUBCHEM_CACTVS_HBOND_DONOR>
0

> <PUBCHEM_CACTVS_ROTATABLE_BOND>
0

> <PUBCHEM_CACTVS_SUBSKEYS>
AAADcfB4PAAAAAAAAAAAAAAAAAAAASJEgAAAAAAAAAAAAAAAAAAAGgAAAAAADRSggAICCAAABAAIAACQCAAAAAAAAAAAAAEAAAAAABYAAAACAAAFIAAAAAGIyPCMAAAAAAAAAAAAAAAAAAAAAAAAAAAAAA==

> <PUBCHEM_IUPAC_OPENEYE_NAME>
(1S,2S,5R,7R,10S,11S,14R,16R,19S,20S,23R,25R)-2,5,11,14,20,23-hexamethyl-4,13,22,28,29,30-hexaoxatetracyclo[23.2.1.17,10.116,19]triacontane-3,12,21-trione

> <PUBCHEM_IUPAC_CAS_NAME>
(1S,2S,5R,7R,10S,11S,14R,16R,19S,20S,23R,25R)-2,5,11,14,20,23-hexamethyl-4,13,22,28,29,30-hexaoxatetracyclo[23.2.1.17,10.116,19]triacontane-3,12,21-trione

> <PUBCHEM_IUPAC_NAME_MARKUP>
(1<I>S</I>,2<I>S</I>,5<I>R</I>,7<I>R</I>,10<I>S</I>,11<I>S</I>,14<I>R</I>,16<I>R</I>,19<I>S</I>,20<I>S</I>,23<I>R</I>,25<I>R</I>)-2,5,11,14,20,23-hexamethyl-4,13,22,28,29,30-hexaoxatetracyclo[23.2.1.1<SUP>7,10</SUP>.1<SUP>16,19</SUP>]triacontane-3,12,21-trione

> <PUBCHEM_IUPAC_NAME>
(1S,2S,5R,7R,10S,11S,14R,16R,19S,20S,23R,25R)-2,5,11,14,20,23-hexamethyl-4,13,22,28,29,30-hexaoxatetracyclo[23.2.1.17,10.116,19]triacontane-3,12,21-trione

> <PUBCHEM_IUPAC_SYSTEMATIC_NAME>
(1S,2S,5R,7R,10S,11S,14R,16R,19S,20S,23R,25R)-2,5,11,14,20,23-hexamethyl-4,13,22,28,29,30-hexaoxatetracyclo[23.2.1.17,10.116,19]triacontane-3,12,21-trione

> <PUBCHEM_IUPAC_TRADITIONAL_NAME>
(1S,2S,5R,7R,10S,11S,14R,16R,19S,20S,23R,25R)-2,5,11,14,20,23-hexamethyl-4,13,22,28,29,30-hexaoxatetracyclo[23.2.1.17,10.116,19]triacontane-3,12,21-trione

> <PUBCHEM_IUPAC_INCHI>
InChI=1S/C30H48O9/c1-16-13-22-7-10-26(37-22)20(5)29(32)35-18(3)15-24-9-12-27(39-24)21(6)30(33)36-17(2)14-23-8-11-25(38-23)19(4)28(31)34-16/h16-27H,7-15H2,1-6H3/t16-,17-,18-,19+,20+,21+,22-,23-,24-,25+,26+,27+/m1/s1

> <PUBCHEM_IUPAC_INCHIKEY>
WYYHFYCQPHDAJE-ZCTZZWDBSA-N

> <PUBCHEM_XLOGP3_AA>
5

> <PUBCHEM_EXACT_MASS>
552.32983310

> <PUBCHEM_MOLECULAR_FORMULA>
C30H48O9

> <PUBCHEM_MOLECULAR_WEIGHT>
552.7

> <PUBCHEM_OPENEYE_CAN_SMILES>
CC1CC2CCC(O2)C(C(=O)OC(CC3CCC(O3)C(C(=O)OC(CC4CCC(O4)C(C(=O)O1)C)C)C)C)C

> <PUBCHEM_OPENEYE_ISO_SMILES>
C[C@@H]1C[C@H]2CC[C@H](O2)[C@@H](C(=O)O[C@@H](C[C@H]3CC[C@H](O3)[C@@H](C(=O)O[C@@H](C[C@H]4CC[C@H](O4)[C@@H](C(=O)O1)C)C)C)C)C

> <PUBCHEM_CACTVS_TPSA>
107

> <PUBCHEM_MONOISOTOPIC_WEIGHT>
552.32983310

> <PUBCHEM_TOTAL_CHARGE>
0

> <PUBCHEM_HEAVY_ATOM_COUNT>
39

> <PUBCHEM_ATOM_DEF_STEREO_COUNT>
12

> <PUBCHEM_ATOM_UDEF_STEREO_COUNT>
0

> <PUBCHEM_BOND_DEF_STEREO_COUNT>
0

> <PUBCHEM_BOND_UDEF_STEREO_COUNT>
0

> <PUBCHEM_ISOTOPIC_ATOM_COUNT>
0

> <PUBCHEM_COMPONENT_COUNT>
1

> <PUBCHEM_CACTVS_TAUTO_COUNT>
-1

> <PUBCHEM_COORDINATE_TYPE>
1
5
255

> <PUBCHEM_BONDANNOTATIONS>
10  40  5
11  41  6
12  42  6
13  43  5
14  44  6
15  45  6
22  34  5
23  35  5
24  36  6
28  37  6
29  38  5
30  39  5

$$$$
