 
  -OEChem-10192104162D

 38 40  0     1  0  0  0  0  0999 V2000
    4.2320    3.6744    0.0000 O   0  0  0  0  0  0  0  0  0  0  0  0
    2.0000   -1.8644    0.0000 O   0  5  0  0  0  0  0  0  0  0  0  0
    2.8660   -3.3644    0.0000 O   0  0  0  0  0  0  0  0  0  0  0  0
    4.5981   -3.3644    0.0000 O   0  0  0  0  0  0  0  0  0  0  0  0
    3.7320    1.1356    0.0000 N   0  3  3  0  0  0  0  0  0  0  0  0
    4.2320    2.6744    0.0000 N   0  0  3  0  0  0  0  0  0  0  0  0
    4.7320    1.1356    0.0000 C   0  0  0  0  0  0  0  0  0  0  0  0
    5.0411    2.0866    0.0000 C   0  0  0  0  0  0  0  0  0  0  0  0
    3.4230    2.0866    0.0000 C   0  4  0  0  0  0  0  0  0  0  0  0
    3.7320    0.1356    0.0000 C   0  0  0  0  0  0  0  0  0  0  0  0
    5.6456    0.7288    0.0000 C   0  0  0  0  0  0  0  0  0  0  0  0
    5.9921    2.3956    0.0000 C   0  0  0  0  0  0  0  0  0  0  0  0
    2.8660   -0.3644    0.0000 C   0  0  0  0  0  0  0  0  0  0  0  0
    4.5981   -0.3644    0.0000 C   0  0  0  0  0  0  0  0  0  0  0  0
    5.7501   -0.2657    0.0000 C   0  0  0  0  0  0  0  0  0  0  0  0
    6.4546    1.3166    0.0000 C   0  0  0  0  0  0  0  0  0  0  0  0
    2.8660   -1.3644    0.0000 C   0  0  0  0  0  0  0  0  0  0  0  0
    4.5981   -1.3644    0.0000 C   0  0  0  0  0  0  0  0  0  0  0  0
    3.7320   -1.8644    0.0000 C   0  0  0  0  0  0  0  0  0  0  0  0
    6.6637   -0.6724    0.0000 C   0  0  0  0  0  0  0  0  0  0  0  0
    7.3682    0.9099    0.0000 C   0  0  0  0  0  0  0  0  0  0  0  0
    7.4727   -0.0846    0.0000 C   0  0  0  0  0  0  0  0  0  0  0  0
    3.7320   -2.8644    0.0000 C   0  0  0  0  0  0  0  0  0  0  0  0
    2.7810    0.8266    0.0000 H   0  0  0  0  0  0  0  0  0  0  0  0
    2.8334    2.2782    0.0000 H   0  0  0  0  0  0  0  0  0  0  0  0
    6.1837    1.8060    0.0000 H   0  0  0  0  0  0  0  0  0  0  0  0
    6.5818    2.5872    0.0000 H   0  0  0  0  0  0  0  0  0  0  0  0
    5.8005    2.9853    0.0000 H   0  0  0  0  0  0  0  0  0  0  0  0
    2.3291   -0.0544    0.0000 H   0  0  0  0  0  0  0  0  0  0  0  0
    5.1350   -0.0544    0.0000 H   0  0  0  0  0  0  0  0  0  0  0  0
    5.2485   -0.6301    0.0000 H   0  0  0  0  0  0  0  0  0  0  0  0
    6.3898    1.9332    0.0000 H   0  0  0  0  0  0  0  0  0  0  0  0
    5.1350   -1.6744    0.0000 H   0  0  0  0  0  0  0  0  0  0  0  0
    3.6951    3.9844    0.0000 H   0  0  0  0  0  0  0  0  0  0  0  0
    6.7285   -1.2890    0.0000 H   0  0  0  0  0  0  0  0  0  0  0  0
    7.8698    1.2743    0.0000 H   0  0  0  0  0  0  0  0  0  0  0  0
    8.0391   -0.3368    0.0000 H   0  0  0  0  0  0  0  0  0  0  0  0
    2.8660   -3.9844    0.0000 H   0  0  0  0  0  0  0  0  0  0  0  0
  1  6  1  0  0  0  0
  1 34  1  0  0  0  0
  2 17  1  0  0  0  0
  3 23  1  0  0  0  0
  3 38  1  0  0  0  0
  4 23  2  0  0  0  0
  5  7  1  0  0  0  0
  5  9  1  0  0  0  0
  5 10  1  0  0  0  0
  5 24  1  0  0  0  0
  6  8  1  0  0  0  0
  6  9  1  0  0  0  0
  7  8  2  0  0  0  0
  7 11  1  0  0  0  0
  8 12  1  0  0  0  0
  9 25  1  0  0  0  0
 10 13  2  0  0  0  0
 10 14  1  0  0  0  0
 11 15  2  0  0  0  0
 11 16  1  0  0  0  0
 12 26  1  0  0  0  0
 12 27  1  0  0  0  0
 12 28  1  0  0  0  0
 13 17  1  0  0  0  0
 13 29  1  0  0  0  0
 14 18  2  0  0  0  0
 14 30  1  0  0  0  0
 15 20  1  0  0  0  0
 15 31  1  0  0  0  0
 16 21  2  0  0  0  0
 16 32  1  0  0  0  0
 17 19  2  0  0  0  0
 18 19  1  0  0  0  0
 18 33  1  0  0  0  0
 19 23  1  0  0  0  0
 20 22  2  0  0  0  0
 20 35  1  0  0  0  0
 21 22  1  0  0  0  0
 21 36  1  0  0  0  0
 22 37  1  0  0  0  0
M  CHG  2   2  -1   5   1
M  RAD  1   9   2
M  END
> <PUBCHEM_COMPOUND_CID>
101613321

> <PUBCHEM_COMPOUND_CANONICALIZED>
1

> <PUBCHEM_CACTVS_COMPLEXITY>
487

> <PUBCHEM_CACTVS_HBOND_ACCEPTOR>
5

> <PUBCHEM_CACTVS_HBOND_DONOR>
3

> <PUBCHEM_CACTVS_ROTATABLE_BOND>
3

> <PUBCHEM_CACTVS_SUBSKEYS>
AAADccB7OAAAAAAAAAAAAAAAAAAAAQAAAAAwYAAAAAAAAAABQAAAHgAUCAAADAyBmAQzzoPQAgCIAiTSSACCAAAlIgAoiIEObMiIJzbAlZOEcUhv8BvI2aeY2SOeCAAAAgAIAAAQAAAEABAAAAAAAAAAAA==

> <PUBCHEM_IUPAC_INCHI>
InChI=1S/C17H15N2O4/c1-11-16(12-5-3-2-4-6-12)18(10-19(11)23)13-7-8-14(17(21)22)15(20)9-13/h2-10,20,23H,1H3,(H,21,22)

> <PUBCHEM_IUPAC_INCHIKEY>
OEYXKKZQZWKBLO-UHFFFAOYSA-N

> <PUBCHEM_XLOGP3_AA>
4.1

> <PUBCHEM_EXACT_MASS>
311.10318196

> <PUBCHEM_MOLECULAR_FORMULA>
C17H15N2O4

> <PUBCHEM_MOLECULAR_WEIGHT>
311.31

> <PUBCHEM_OPENEYE_CAN_SMILES>
CC1=C([NH+]([CH]N1O)C2=CC(=C(C=C2)C(=O)O)[O-])C3=CC=CC=C3

> <PUBCHEM_OPENEYE_ISO_SMILES>
CC1=C([NH+]([CH]N1O)C2=CC(=C(C=C2)C(=O)O)[O-])C3=CC=CC=C3

> <PUBCHEM_CACTVS_TPSA>
88.3

> <PUBCHEM_MONOISOTOPIC_WEIGHT>
311.10318196

> <PUBCHEM_TOTAL_CHARGE>
0

> <PUBCHEM_HEAVY_ATOM_COUNT>
23

> <PUBCHEM_ATOM_DEF_STEREO_COUNT>
0

> <PUBCHEM_ATOM_UDEF_STEREO_COUNT>
0

> <PUBCHEM_BOND_DEF_STEREO_COUNT>
0

> <PUBCHEM_BOND_UDEF_STEREO_COUNT>
0

> <PUBCHEM_ISOTOPIC_ATOM_COUNT>
0

> <PUBCHEM_COMPONENT_COUNT>
1

> <PUBCHEM_CACTVS_TAUTO_COUNT>
-1

> <PUBCHEM_COORDINATE_TYPE>
1
5
255

> <PUBCHEM_BONDANNOTATIONS>
10  13  8
10  14  8
11  15  8
11  16  8
13  17  8
14  18  8
15  20  8
16  21  8
17  19  8
18  19  8
20  22  8
21  22  8

$$$$
