 
  -OEChem-10192104272D

 26 25  0     1  0  0  0  0  0999 V2000
    4.5981    0.6550    0.0000 S   0  0  0  0  0  0  0  0  0  0  0  0
    4.0981    1.5210    0.0000 O   0  0  0  0  0  0  0  0  0  0  0  0
    5.0981   -0.2110    0.0000 O   0  0  0  0  0  0  0  0  0  0  0  0
    8.0622    0.6550    0.0000 O   0  0  0  0  0  0  0  0  0  0  0  0
    7.1962    2.1550    0.0000 O   0  0  0  0  0  0  0  0  0  0  0  0
    7.1962   -1.8450    0.0000 O   0  0  0  0  0  0  0  0  0  0  0  0
    8.0622   -0.3450    0.0000 O   0  0  0  0  0  0  0  0  0  0  0  0
    5.4641    1.1550    0.0000 N   0  0  0  0  0  0  0  0  0  0  0  0
    2.0000    1.1550    0.0000 N   0  0  0  0  0  0  0  0  0  0  0  0
    6.3301    0.6550    0.0000 C   0  0  1  0  0  0  0  0  0  0  0  0
    3.7320    0.1550    0.0000 C   0  0  3  0  0  0  0  0  0  0  0  0
    6.3301   -0.3450    0.0000 C   0  0  0  0  0  0  0  0  0  0  0  0
    3.7320   -0.8450    0.0000 C   0  0  0  0  0  0  0  0  0  0  0  0
    7.1962    1.1550    0.0000 C   0  0  0  0  0  0  0  0  0  0  0  0
    7.1962   -0.8450    0.0000 C   0  0  0  0  0  0  0  0  0  0  0  0
    2.8660    0.6550    0.0000 C   0  0  0  0  0  0  0  0  0  0  0  0
    5.7932    0.3450    0.0000 H   0  0  0  0  0  0  0  0  0  0  0  0
    5.4641    1.7750    0.0000 H   0  0  0  0  0  0  0  0  0  0  0  0
    3.7320    0.7750    0.0000 H   0  0  0  0  0  0  0  0  0  0  0  0
    5.7196   -0.2373    0.0000 H   0  0  0  0  0  0  0  0  0  0  0  0
    6.1181   -0.9276    0.0000 H   0  0  0  0  0  0  0  0  0  0  0  0
    3.1120   -0.8450    0.0000 H   0  0  0  0  0  0  0  0  0  0  0  0
    3.7320   -1.4650    0.0000 H   0  0  0  0  0  0  0  0  0  0  0  0
    4.3520   -0.8450    0.0000 H   0  0  0  0  0  0  0  0  0  0  0  0
    8.5991    0.9650    0.0000 H   0  0  0  0  0  0  0  0  0  0  0  0
    7.7331   -2.1550    0.0000 H   0  0  0  0  0  0  0  0  0  0  0  0
  1  2  2  0  0  0  0
  1  3  2  0  0  0  0
  1  8  1  0  0  0  0
  1 11  1  0  0  0  0
  4 14  1  0  0  0  0
  4 25  1  0  0  0  0
  5 14  2  0  0  0  0
  6 15  1  0  0  0  0
  6 26  1  0  0  0  0
  7 15  2  0  0  0  0
 10  8  1  6  0  0  0
  8 18  1  0  0  0  0
  9 16  3  0  0  0  0
 10 12  1  0  0  0  0
 10 14  1  0  0  0  0
 10 17  1  0  0  0  0
 11 13  1  0  0  0  0
 11 16  1  0  0  0  0
 11 19  1  0  0  0  0
 12 15  1  0  0  0  0
 12 20  1  0  0  0  0
 12 21  1  0  0  0  0
 13 22  1  0  0  0  0
 13 23  1  0  0  0  0
 13 24  1  0  0  0  0
M  END
> <PUBCHEM_COMPOUND_CID>
81640352

> <PUBCHEM_COMPOUND_CANONICALIZED>
1

> <PUBCHEM_CACTVS_COMPLEXITY>
428

> <PUBCHEM_CACTVS_HBOND_ACCEPTOR>
8

> <PUBCHEM_CACTVS_HBOND_DONOR>
3

> <PUBCHEM_CACTVS_ROTATABLE_BOND>
6

> <PUBCHEM_CACTVS_SUBSKEYS>
AAADccBjOABAAAAAAAAAAAAAAAAAAAAAAAAAAAAAAAAAAAAAAAAAHgQQSAAACCjFwASCCABAAgIYBACQCHBAAAAAAAAAAIGAAAACgBgAAAAAQAAGEAAAAABDAAAAAAAAAAAAAAAAAAAAAAAAAAAAAAAAAA==

> <PUBCHEM_IUPAC_OPENEYE_NAME>
(2S)-2-(1-cyanoethylsulfonylamino)butanedioic acid

> <PUBCHEM_IUPAC_CAS_NAME>
(2S)-2-(1-cyanoethylsulfonylamino)butanedioic acid

> <PUBCHEM_IUPAC_NAME_MARKUP>
(2<I>S</I>)-2-(1-cyanoethylsulfonylamino)butanedioic acid

> <PUBCHEM_IUPAC_NAME>
(2S)-2-(1-cyanoethylsulfonylamino)butanedioic acid

> <PUBCHEM_IUPAC_SYSTEMATIC_NAME>
(2S)-2-(1-cyanoethylsulfonylamino)butanedioic acid

> <PUBCHEM_IUPAC_TRADITIONAL_NAME>
(2S)-2-(1-cyanoethylsulfonylamino)succinic acid

> <PUBCHEM_IUPAC_INCHI>
InChI=1S/C7H10N2O6S/c1-4(3-8)16(14,15)9-5(7(12)13)2-6(10)11/h4-5,9H,2H2,1H3,(H,10,11)(H,12,13)/t4?,5-/m0/s1

> <PUBCHEM_IUPAC_INCHIKEY>
BGZYGYONDQWVGS-AKGZTFGVSA-N

> <PUBCHEM_XLOGP3_AA>
-1.4

> <PUBCHEM_EXACT_MASS>
250.02595722

> <PUBCHEM_MOLECULAR_FORMULA>
C7H10N2O6S

> <PUBCHEM_MOLECULAR_WEIGHT>
250.23

> <PUBCHEM_OPENEYE_CAN_SMILES>
CC(C#N)S(=O)(=O)NC(CC(=O)O)C(=O)O

> <PUBCHEM_OPENEYE_ISO_SMILES>
CC(C#N)S(=O)(=O)N[C@@H](CC(=O)O)C(=O)O

> <PUBCHEM_CACTVS_TPSA>
153

> <PUBCHEM_MONOISOTOPIC_WEIGHT>
250.02595722

> <PUBCHEM_TOTAL_CHARGE>
0

> <PUBCHEM_HEAVY_ATOM_COUNT>
16

> <PUBCHEM_ATOM_DEF_STEREO_COUNT>
1

> <PUBCHEM_ATOM_UDEF_STEREO_COUNT>
1

> <PUBCHEM_BOND_DEF_STEREO_COUNT>
0

> <PUBCHEM_BOND_UDEF_STEREO_COUNT>
0

> <PUBCHEM_ISOTOPIC_ATOM_COUNT>
0

> <PUBCHEM_COMPONENT_COUNT>
1

> <PUBCHEM_CACTVS_TAUTO_COUNT>
-1

> <PUBCHEM_COORDINATE_TYPE>
1
5
255

> <PUBCHEM_BONDANNOTATIONS>
11  13  3
10  8  6

$$$$
