 
  -OEChem-10192103502D

 25 25  0     1  0  0  0  0  0999 V2000
    3.7320    0.2500    0.0000 P   0  0  3  0  0  0  0  0  0  0  0  0
    2.8660   -0.2500    0.0000 O   0  0  0  0  0  0  0  0  0  0  0  0
    4.5981    0.7500    0.0000 O   0  0  0  0  0  0  0  0  0  0  0  0
    4.5981    1.7500    0.0000 O   0  0  0  0  0  0  0  0  0  0  0  0
    3.2320    1.1160    0.0000 O   0  0  0  0  0  0  0  0  0  0  0  0
    4.2320   -0.6160    0.0000 O   0  0  0  0  0  0  0  0  0  0  0  0
    2.8660   -1.2500    0.0000 C   0  0  0  0  0  0  0  0  0  0  0  0
    2.0000   -1.7500    0.0000 C   0  0  0  0  0  0  0  0  0  0  0  0
    3.7320   -1.7500    0.0000 C   0  0  0  0  0  0  0  0  0  0  0  0
    2.0000   -2.7500    0.0000 C   0  0  0  0  0  0  0  0  0  0  0  0
    3.7320   -2.7500    0.0000 C   0  0  0  0  0  0  0  0  0  0  0  0
    2.8660   -3.2500    0.0000 C   0  0  0  0  0  0  0  0  0  0  0  0
    5.4641    2.2500    0.0000 C   0  0  0  0  0  0  0  0  0  0  0  0
    5.4641    3.2500    0.0000 C   0  0  0  0  0  0  0  0  0  0  0  0
    1.4631   -1.4400    0.0000 H   0  0  0  0  0  0  0  0  0  0  0  0
    4.2690   -1.4400    0.0000 H   0  0  0  0  0  0  0  0  0  0  0  0
    1.4631   -3.0600    0.0000 H   0  0  0  0  0  0  0  0  0  0  0  0
    4.2690   -3.0600    0.0000 H   0  0  0  0  0  0  0  0  0  0  0  0
    5.6762    1.6674    0.0000 H   0  0  0  0  0  0  0  0  0  0  0  0
    6.0747    2.3577    0.0000 H   0  0  0  0  0  0  0  0  0  0  0  0
    2.8660   -3.8700    0.0000 H   0  0  0  0  0  0  0  0  0  0  0  0
    6.0841    3.2500    0.0000 H   0  0  0  0  0  0  0  0  0  0  0  0
    5.4641    3.8700    0.0000 H   0  0  0  0  0  0  0  0  0  0  0  0
    4.8441    3.2500    0.0000 H   0  0  0  0  0  0  0  0  0  0  0  0
    2.6120    1.1160    0.0000 H   0  0  0  0  0  0  0  0  0  0  0  0
  1  2  1  0  0  0  0
  1  3  1  0  0  0  0
  1  5  1  0  0  0  0
  1  6  2  0  0  0  0
  2  7  1  0  0  0  0
  3  4  1  0  0  0  0
  4 13  1  0  0  0  0
  5 25  1  0  0  0  0
  7  8  2  0  0  0  0
  7  9  1  0  0  0  0
  8 10  1  0  0  0  0
  8 15  1  0  0  0  0
  9 11  2  0  0  0  0
  9 16  1  0  0  0  0
 10 12  2  0  0  0  0
 10 17  1  0  0  0  0
 11 12  1  0  0  0  0
 11 18  1  0  0  0  0
 12 21  1  0  0  0  0
 13 14  1  0  0  0  0
 13 19  1  0  0  0  0
 13 20  1  0  0  0  0
 14 22  1  0  0  0  0
 14 23  1  0  0  0  0
 14 24  1  0  0  0  0
M  END
> <PUBCHEM_COMPOUND_CID>
57022431

> <PUBCHEM_COMPOUND_CANONICALIZED>
1

> <PUBCHEM_CACTVS_COMPLEXITY>
202

> <PUBCHEM_CACTVS_HBOND_ACCEPTOR>
5

> <PUBCHEM_CACTVS_HBOND_DONOR>
1

> <PUBCHEM_CACTVS_ROTATABLE_BOND>
5

> <PUBCHEM_CACTVS_SUBSKEYS>
AAADccBwOAIAAAAAAAAAAAAAAAAAAAAAAAAwAAAAAAAAAAABAAAAGgAADCAACASgkAIyBoAAARCAQCBCAIACAAAgIAAIiAAGCIgIJiKAERKAMAAkwBEIiAeAQAAAAAAAAAAAAAAAAAAAAAAAAAAAAAAAAA==

> <PUBCHEM_IUPAC_OPENEYE_NAME>
ethoxy phenyl hydrogen phosphate

> <PUBCHEM_IUPAC_CAS_NAME>
ethoxy phenyl hydrogen phosphate

> <PUBCHEM_IUPAC_NAME_MARKUP>
ethoxy phenyl hydrogen phosphate

> <PUBCHEM_IUPAC_NAME>
ethoxy phenyl hydrogen phosphate

> <PUBCHEM_IUPAC_SYSTEMATIC_NAME>
ethoxy phenyl hydrogen phosphate

> <PUBCHEM_IUPAC_TRADITIONAL_NAME>
ethoxy phenyl hydrogen phosphate

> <PUBCHEM_IUPAC_INCHI>
InChI=1S/C8H11O5P/c1-2-11-13-14(9,10)12-8-6-4-3-5-7-8/h3-7H,2H2,1H3,(H,9,10)

> <PUBCHEM_IUPAC_INCHIKEY>
OWYMFSLJPQGQLO-UHFFFAOYSA-N

> <PUBCHEM_XLOGP3_AA>
1.2

> <PUBCHEM_EXACT_MASS>
218.03441044

> <PUBCHEM_MOLECULAR_FORMULA>
C8H11O5P

> <PUBCHEM_MOLECULAR_WEIGHT>
218.14

> <PUBCHEM_OPENEYE_CAN_SMILES>
CCOOP(=O)(O)OC1=CC=CC=C1

> <PUBCHEM_OPENEYE_ISO_SMILES>
CCOOP(=O)(O)OC1=CC=CC=C1

> <PUBCHEM_CACTVS_TPSA>
65

> <PUBCHEM_MONOISOTOPIC_WEIGHT>
218.03441044

> <PUBCHEM_TOTAL_CHARGE>
0

> <PUBCHEM_HEAVY_ATOM_COUNT>
14

> <PUBCHEM_ATOM_DEF_STEREO_COUNT>
0

> <PUBCHEM_ATOM_UDEF_STEREO_COUNT>
0

> <PUBCHEM_BOND_DEF_STEREO_COUNT>
0

> <PUBCHEM_BOND_UDEF_STEREO_COUNT>
0

> <PUBCHEM_ISOTOPIC_ATOM_COUNT>
0

> <PUBCHEM_COMPONENT_COUNT>
1

> <PUBCHEM_CACTVS_TAUTO_COUNT>
-1

> <PUBCHEM_COORDINATE_TYPE>
1
5
255

> <PUBCHEM_BONDANNOTATIONS>
10  12  8
11  12  8
7  8  8
7  9  8
8  10  8
9  11  8

$$$$
