 
  -OEChem-10192104032D

 48 50  0     1  0  0  0  0  0999 V2000
    5.1350   -0.6296    0.0000 O   0  0  0  0  0  0  0  0  0  0  0  0
    6.8671   -0.6296    0.0000 O   0  0  0  0  0  0  0  0  0  0  0  0
    5.1350   -3.6296    0.0000 O   0  0  0  0  0  0  0  0  0  0  0  0
    3.4030   -2.6296    0.0000 O   0  0  0  0  0  0  0  0  0  0  0  0
    6.8671   -2.6296    0.0000 O   0  0  0  0  0  0  0  0  0  0  0  0
    2.5369   -1.1296    0.0000 O   0  0  0  0  0  0  0  0  0  0  0  0
    8.5991    0.3704    0.0000 O   0  0  0  0  0  0  0  0  0  0  0  0
    5.1350    0.3704    0.0000 O   0  0  0  0  0  0  0  0  0  0  0  0
    8.6431    2.3772    0.0000 O   0  0  0  0  0  0  0  0  0  0  0  0
    5.1350    2.3704    0.0000 O   0  0  0  0  0  0  0  0  0  0  0  0
    9.5191    3.9155    0.0000 O   0  0  0  0  0  0  0  0  0  0  0  0
    5.1350   -2.6296    0.0000 C   0  0  1  0  0  0  0  0  0  0  0  0
    4.2690   -2.1296    0.0000 C   0  0  1  0  0  0  0  0  0  0  0  0
    6.0010   -2.1296    0.0000 C   0  0  2  0  0  0  0  0  0  0  0  0
    4.2690   -1.1296    0.0000 C   0  0  1  0  0  0  0  0  0  0  0  0
    6.0010   -1.1296    0.0000 C   0  0  1  0  0  0  0  0  0  0  0  0
    3.4030   -0.6296    0.0000 C   0  0  0  0  0  0  0  0  0  0  0  0
    6.8671    0.3704    0.0000 C   0  0  0  0  0  0  0  0  0  0  0  0
    7.7331    0.8704    0.0000 C   0  0  0  0  0  0  0  0  0  0  0  0
    6.0010    0.8704    0.0000 C   0  0  0  0  0  0  0  0  0  0  0  0
    7.7331    1.8704    0.0000 C   0  0  0  0  0  0  0  0  0  0  0  0
    6.8671    2.3704    0.0000 C   0  0  0  0  0  0  0  0  0  0  0  0
    6.0010    1.8704    0.0000 C   0  0  0  0  0  0  0  0  0  0  0  0
    6.8510    3.4119    0.0000 C   0  0  0  0  0  0  0  0  0  0  0  0
    7.7490    3.9396    0.0000 C   0  0  0  0  0  0  0  0  0  0  0  0
    8.6511    3.4188    0.0000 C   0  0  0  0  0  0  0  0  0  0  0  0
    9.4651    0.8704    0.0000 C   0  0  0  0  0  0  0  0  0  0  0  0
    4.2690    0.8704    0.0000 C   0  0  0  0  0  0  0  0  0  0  0  0
    4.5981   -2.9396    0.0000 H   0  0  0  0  0  0  0  0  0  0  0  0
    4.2690   -2.7496    0.0000 H   0  0  0  0  0  0  0  0  0  0  0  0
    6.0010   -2.7496    0.0000 H   0  0  0  0  0  0  0  0  0  0  0  0
    4.2690   -0.5096    0.0000 H   0  0  0  0  0  0  0  0  0  0  0  0
    6.5380   -1.4396    0.0000 H   0  0  0  0  0  0  0  0  0  0  0  0
    3.8015   -0.1547    0.0000 H   0  0  0  0  0  0  0  0  0  0  0  0
    3.0044   -0.1547    0.0000 H   0  0  0  0  0  0  0  0  0  0  0  0
    4.5981   -3.9396    0.0000 H   0  0  0  0  0  0  0  0  0  0  0  0
    3.4030   -3.2496    0.0000 H   0  0  0  0  0  0  0  0  0  0  0  0
    6.8671   -3.2496    0.0000 H   0  0  0  0  0  0  0  0  0  0  0  0
    2.0000   -0.8196    0.0000 H   0  0  0  0  0  0  0  0  0  0  0  0
    6.3105    3.7156    0.0000 H   0  0  0  0  0  0  0  0  0  0  0  0
    7.7466    4.5596    0.0000 H   0  0  0  0  0  0  0  0  0  0  0  0
    5.1350    2.9904    0.0000 H   0  0  0  0  0  0  0  0  0  0  0  0
    9.7751    0.3334    0.0000 H   0  0  0  0  0  0  0  0  0  0  0  0
   10.0021    1.1804    0.0000 H   0  0  0  0  0  0  0  0  0  0  0  0
    9.1551    1.4073    0.0000 H   0  0  0  0  0  0  0  0  0  0  0  0
    4.5790    1.4073    0.0000 H   0  0  0  0  0  0  0  0  0  0  0  0
    3.7320    1.1804    0.0000 H   0  0  0  0  0  0  0  0  0  0  0  0
    3.9590    0.3334    0.0000 H   0  0  0  0  0  0  0  0  0  0  0  0
  1 15  1  0  0  0  0
  1 16  1  0  0  0  0
 16  2  1  1  0  0  0
  2 18  1  0  0  0  0
 12  3  1  1  0  0  0
  3 36  1  0  0  0  0
 13  4  1  6  0  0  0
  4 37  1  0  0  0  0
 14  5  1  6  0  0  0
  5 38  1  0  0  0  0
  6 17  1  0  0  0  0
  6 39  1  0  0  0  0
  7 19  1  0  0  0  0
  7 27  1  0  0  0  0
  8 20  1  0  0  0  0
  8 28  1  0  0  0  0
  9 21  1  0  0  0  0
  9 26  1  0  0  0  0
 10 23  1  0  0  0  0
 10 42  1  0  0  0  0
 11 26  2  0  0  0  0
 12 13  1  0  0  0  0
 12 14  1  0  0  0  0
 12 29  1  0  0  0  0
 13 15  1  0  0  0  0
 13 30  1  0  0  0  0
 14 16  1  0  0  0  0
 14 31  1  0  0  0  0
 15 17  1  1  0  0  0
 15 32  1  0  0  0  0
 16 33  1  0  0  0  0
 17 34  1  0  0  0  0
 17 35  1  0  0  0  0
 18 19  1  0  0  0  0
 18 20  2  0  0  0  0
 19 21  2  0  0  0  0
 20 23  1  0  0  0  0
 21 22  1  0  0  0  0
 22 23  2  0  0  0  0
 22 24  1  0  0  0  0
 24 25  2  0  0  0  0
 24 40  1  0  0  0  0
 25 26  1  0  0  0  0
 25 41  1  0  0  0  0
 27 43  1  0  0  0  0
 27 44  1  0  0  0  0
 27 45  1  0  0  0  0
 28 46  1  0  0  0  0
 28 47  1  0  0  0  0
 28 48  1  0  0  0  0
M  END
> <PUBCHEM_COMPOUND_CID>
51136464

> <PUBCHEM_COMPOUND_CANONICALIZED>
1

> <PUBCHEM_CACTVS_COMPLEXITY>
584

> <PUBCHEM_CACTVS_HBOND_ACCEPTOR>
11

> <PUBCHEM_CACTVS_HBOND_DONOR>
5

> <PUBCHEM_CACTVS_ROTATABLE_BOND>
5

> <PUBCHEM_CACTVS_SUBSKEYS>
AAADceB4PAAAAAAAAAAAAAAAAAAAAAAAAAA0QIAAAAAAAACBAAAAGgAACAAADBSwmAMCDoAABgCIAiDSCAACCAAgIAAIiAAEiMgdNyKGMBqieiOlwBUPuYfA4DwOIQABCAAIQABCAAIQABCAAAAAAAAAAA==

> <PUBCHEM_IUPAC_OPENEYE_NAME>
5-hydroxy-6,8-dimethoxy-7-[(2S,3R,4S,5S,6R)-3,4,5-trihydroxy-6-(hydroxymethyl)tetrahydropyran-2-yl]oxy-chromen-2-one

> <PUBCHEM_IUPAC_CAS_NAME>
5-hydroxy-6,8-dimethoxy-7-[[(2S,3R,4S,5S,6R)-3,4,5-trihydroxy-6-(hydroxymethyl)-2-oxanyl]oxy]-1-benzopyran-2-one

> <PUBCHEM_IUPAC_NAME_MARKUP>
5-hydroxy-6,8-dimethoxy-7-[(2<I>S</I>,3<I>R</I>,4<I>S</I>,5<I>S</I>,6<I>R</I>)-3,4,5-trihydroxy-6-(hydroxymethyl)oxan-2-yl]oxychromen-2-one

> <PUBCHEM_IUPAC_NAME>
5-hydroxy-6,8-dimethoxy-7-[(2S,3R,4S,5S,6R)-3,4,5-trihydroxy-6-(hydroxymethyl)oxan-2-yl]oxychromen-2-one

> <PUBCHEM_IUPAC_SYSTEMATIC_NAME>
7-[(2S,3R,4S,5S,6R)-6-(hydroxymethyl)-3,4,5-tris(oxidanyl)oxan-2-yl]oxy-6,8-dimethoxy-5-oxidanyl-chromen-2-one

> <PUBCHEM_IUPAC_TRADITIONAL_NAME>
5-hydroxy-6,8-dimethoxy-7-[(2S,3R,4S,5S,6R)-3,4,5-trihydroxy-6-methylol-tetrahydropyran-2-yl]oxy-coumarin

> <PUBCHEM_IUPAC_INCHI>
InChI=1S/C17H20O11/c1-24-14-9(20)6-3-4-8(19)27-13(6)15(25-2)16(14)28-17-12(23)11(22)10(21)7(5-18)26-17/h3-4,7,10-12,17-18,20-23H,5H2,1-2H3/t7-,10-,11+,12-,17+/m1/s1

> <PUBCHEM_IUPAC_INCHIKEY>
KDWWYRPEBULRGU-KIZWGXMFSA-N

> <PUBCHEM_XLOGP3_AA>
-0.7

> <PUBCHEM_EXACT_MASS>
400.10056145

> <PUBCHEM_MOLECULAR_FORMULA>
C17H20O11

> <PUBCHEM_MOLECULAR_WEIGHT>
400.3

> <PUBCHEM_OPENEYE_CAN_SMILES>
COC1=C(C(=C2C(=C1O)C=CC(=O)O2)OC)OC3C(C(C(C(O3)CO)O)O)O

> <PUBCHEM_OPENEYE_ISO_SMILES>
COC1=C(C(=C2C(=C1O)C=CC(=O)O2)OC)O[C@H]3[C@@H]([C@H]([C@@H]([C@H](O3)CO)O)O)O

> <PUBCHEM_CACTVS_TPSA>
164

> <PUBCHEM_MONOISOTOPIC_WEIGHT>
400.10056145

> <PUBCHEM_TOTAL_CHARGE>
0

> <PUBCHEM_HEAVY_ATOM_COUNT>
28

> <PUBCHEM_ATOM_DEF_STEREO_COUNT>
5

> <PUBCHEM_ATOM_UDEF_STEREO_COUNT>
0

> <PUBCHEM_BOND_DEF_STEREO_COUNT>
0

> <PUBCHEM_BOND_UDEF_STEREO_COUNT>
0

> <PUBCHEM_ISOTOPIC_ATOM_COUNT>
0

> <PUBCHEM_COMPONENT_COUNT>
1

> <PUBCHEM_CACTVS_TAUTO_COUNT>
-1

> <PUBCHEM_COORDINATE_TYPE>
1
5
255

> <PUBCHEM_BONDANNOTATIONS>
15  17  5
18  19  8
18  20  8
19  21  8
16  2  5
20  23  8
21  22  8
22  23  8
22  24  8
24  25  8
25  26  8
12  3  5
13  4  6
14  5  6
9  21  8
9  26  8

$$$$
