 
  -OEChem-10192104132D

 53 55  0     0  0  0  0  0  0999 V2000
    6.6569    1.3107    0.0000 O   0  0  0  0  0  0  0  0  0  0  0  0
    4.6660    1.3447    0.0000 O   0  0  0  0  0  0  0  0  0  0  0  0
    6.6569   -0.6893    0.0000 O   0  0  0  0  0  0  0  0  0  0  0  0
    4.6660   -0.6553    0.0000 O   0  0  0  0  0  0  0  0  0  0  0  0
    6.3391   -2.1035    0.0000 O   0  0  0  0  0  0  0  0  0  0  0  0
    8.3890   -1.6893    0.0000 O   0  0  0  0  0  0  0  0  0  0  0  0
    5.7909    2.8107    0.0000 C   0  0  0  0  0  0  0  0  0  0  0  0
    6.6569    2.3107    0.0000 C   0  0  0  0  0  0  0  0  0  0  0  0
    4.9248    2.3107    0.0000 C   0  0  0  0  0  0  0  0  0  0  0  0
    5.7909    0.8107    0.0000 C   0  0  0  0  0  0  0  0  0  0  0  0
    5.7909   -0.1893    0.0000 C   0  0  0  0  0  0  0  0  0  0  0  0
    3.8000    0.8447    0.0000 C   0  0  0  0  0  0  0  0  0  0  0  0
    3.8000   -0.1553    0.0000 C   0  0  0  0  0  0  0  0  0  0  0  0
    4.6660   -1.6553    0.0000 C   0  0  0  0  0  0  0  0  0  0  0  0
    5.3731   -2.3624    0.0000 C   0  0  0  0  0  0  0  0  0  0  0  0
    7.0462   -2.8107    0.0000 C   0  0  0  0  0  0  0  0  0  0  0  0
    7.5229   -0.1893    0.0000 C   0  0  0  0  0  0  0  0  0  0  0  0
    8.0121   -2.5518    0.0000 C   0  0  0  0  0  0  0  0  0  0  0  0
    8.3890   -0.6893    0.0000 C   0  0  0  0  0  0  0  0  0  0  0  0
    2.9061    1.3794    0.0000 C   0  0  0  0  0  0  0  0  0  0  0  0
    2.9061   -0.6899    0.0000 C   0  0  0  0  0  0  0  0  0  0  0  0
    7.5069    0.8522    0.0000 C   0  0  0  0  0  0  0  0  0  0  0  0
    9.2990   -0.1825    0.0000 C   0  0  0  0  0  0  0  0  0  0  0  0
    2.0000    0.8656    0.0000 C   0  0  0  0  0  0  0  0  0  0  0  0
    2.0000   -0.1761    0.0000 C   0  0  0  0  0  0  0  0  0  0  0  0
    8.4049    1.3799    0.0000 C   0  0  0  0  0  0  0  0  0  0  0  0
    9.3070    0.8591    0.0000 C   0  0  0  0  0  0  0  0  0  0  0  0
    6.1894    3.2856    0.0000 H   0  0  0  0  0  0  0  0  0  0  0  0
    5.3924    3.2856    0.0000 H   0  0  0  0  0  0  0  0  0  0  0  0
    7.2675    2.2030    0.0000 H   0  0  0  0  0  0  0  0  0  0  0  0
    6.8690    2.8933    0.0000 H   0  0  0  0  0  0  0  0  0  0  0  0
    4.7644    2.9095    0.0000 H   0  0  0  0  0  0  0  0  0  0  0  0
    4.3048    2.3107    0.0000 H   0  0  0  0  0  0  0  0  0  0  0  0
    5.5788    1.3933    0.0000 H   0  0  0  0  0  0  0  0  0  0  0  0
    5.1803    0.7030    0.0000 H   0  0  0  0  0  0  0  0  0  0  0  0
    5.1803   -0.0817    0.0000 H   0  0  0  0  0  0  0  0  0  0  0  0
    5.5788   -0.7719    0.0000 H   0  0  0  0  0  0  0  0  0  0  0  0
    4.0672   -1.4948    0.0000 H   0  0  0  0  0  0  0  0  0  0  0  0
    4.3560   -2.1922    0.0000 H   0  0  0  0  0  0  0  0  0  0  0  0
    4.8653   -2.7180    0.0000 H   0  0  0  0  0  0  0  0  0  0  0  0
    5.6352   -2.9243    0.0000 H   0  0  0  0  0  0  0  0  0  0  0  0
    6.5383   -3.1663    0.0000 H   0  0  0  0  0  0  0  0  0  0  0  0
    7.3082   -3.3726    0.0000 H   0  0  0  0  0  0  0  0  0  0  0  0
    8.0352   -3.1714    0.0000 H   0  0  0  0  0  0  0  0  0  0  0  0
    8.6212   -2.6673    0.0000 H   0  0  0  0  0  0  0  0  0  0  0  0
    2.9132    1.9994    0.0000 H   0  0  0  0  0  0  0  0  0  0  0  0
    2.9132   -1.3099    0.0000 H   0  0  0  0  0  0  0  0  0  0  0  0
    6.9664    1.1559    0.0000 H   0  0  0  0  0  0  0  0  0  0  0  0
    9.8323   -0.4987    0.0000 H   0  0  0  0  0  0  0  0  0  0  0  0
    1.4643    1.1776    0.0000 H   0  0  0  0  0  0  0  0  0  0  0  0
    1.4643   -0.4881    0.0000 H   0  0  0  0  0  0  0  0  0  0  0  0
    8.4025    1.9999    0.0000 H   0  0  0  0  0  0  0  0  0  0  0  0
    9.8451    1.1670    0.0000 H   0  0  0  0  0  0  0  0  0  0  0  0
  1  8  1  0  0  0  0
  1 10  1  0  0  0  0
  2  9  1  0  0  0  0
  2 12  1  0  0  0  0
  3 11  1  0  0  0  0
  3 17  1  0  0  0  0
  4 13  1  0  0  0  0
  4 14  1  0  0  0  0
  5 15  1  0  0  0  0
  5 16  1  0  0  0  0
  6 18  1  0  0  0  0
  6 19  1  0  0  0  0
  7  8  1  0  0  0  0
  7  9  1  0  0  0  0
  7 28  1  0  0  0  0
  7 29  1  0  0  0  0
  8 30  1  0  0  0  0
  8 31  1  0  0  0  0
  9 32  1  0  0  0  0
  9 33  1  0  0  0  0
 10 11  1  0  0  0  0
 10 34  1  0  0  0  0
 10 35  1  0  0  0  0
 11 36  1  0  0  0  0
 11 37  1  0  0  0  0
 12 13  1  0  0  0  0
 12 20  2  0  0  0  0
 13 21  2  0  0  0  0
 14 15  1  0  0  0  0
 14 38  1  0  0  0  0
 14 39  1  0  0  0  0
 15 40  1  0  0  0  0
 15 41  1  0  0  0  0
 16 18  1  0  0  0  0
 16 42  1  0  0  0  0
 16 43  1  0  0  0  0
 17 19  1  0  0  0  0
 17 22  2  0  0  0  0
 18 44  1  0  0  0  0
 18 45  1  0  0  0  0
 19 23  2  0  0  0  0
 20 24  1  0  0  0  0
 20 46  1  0  0  0  0
 21 25  1  0  0  0  0
 21 47  1  0  0  0  0
 22 26  1  0  0  0  0
 22 48  1  0  0  0  0
 23 27  1  0  0  0  0
 23 49  1  0  0  0  0
 24 25  2  0  0  0  0
 24 50  1  0  0  0  0
 25 51  1  0  0  0  0
 26 27  2  0  0  0  0
 26 52  1  0  0  0  0
 27 53  1  0  0  0  0
M  END
> <PUBCHEM_COMPOUND_CID>
15520803

> <PUBCHEM_COMPOUND_CANONICALIZED>
1

> <PUBCHEM_CACTVS_COMPLEXITY>
380

> <PUBCHEM_CACTVS_HBOND_ACCEPTOR>
6

> <PUBCHEM_CACTVS_HBOND_DONOR>
0

> <PUBCHEM_CACTVS_ROTATABLE_BOND>
0

> <PUBCHEM_CACTVS_SUBSKEYS>
AAADceB4OAAAAAAAAAAAAAAAAAAAAAAAAAAwYAAAAAAAAAABQAAAGgAAAAAACASgkAIwBoAABACAACBCAAACCAAgIAAIiAAGiIgNJiKEMRqCOCKlwBEKqAeAQAAAAAAAAAAAQAAAAAAAAACAAAAAAAAAAA==

> <PUBCHEM_IUPAC_OPENEYE_NAME>
2,5,8,15,18,22-hexaoxatricyclo[21.4.0.09,14]heptacosa-1(27),9,11,13,23,25-hexaene

> <PUBCHEM_IUPAC_CAS_NAME>
2,5,8,15,18,22-hexaoxatricyclo[21.4.0.09,14]heptacosa-1(27),9,11,13,23,25-hexaene

> <PUBCHEM_IUPAC_NAME_MARKUP>
2,5,8,15,18,22-hexaoxatricyclo[21.4.0.0<SUP>9,14</SUP>]heptacosa-1(27),9,11,13,23,25-hexaene

> <PUBCHEM_IUPAC_NAME>
2,5,8,15,18,22-hexaoxatricyclo[21.4.0.09,14]heptacosa-1(27),9,11,13,23,25-hexaene

> <PUBCHEM_IUPAC_SYSTEMATIC_NAME>
2,5,8,15,18,22-hexaoxatricyclo[21.4.0.09,14]heptacosa-1(27),9,11,13,23,25-hexaene

> <PUBCHEM_IUPAC_TRADITIONAL_NAME>
2,5,8,15,18,22-hexaoxatricyclo[21.4.0.09,14]heptacosa-1(27),9,11,13,23,25-hexaene

> <PUBCHEM_IUPAC_INCHI>
InChI=1S/C21H26O6/c1-2-7-19-18(6-1)24-11-5-10-22-12-15-25-20-8-3-4-9-21(20)27-17-14-23-13-16-26-19/h1-4,6-9H,5,10-17H2

> <PUBCHEM_IUPAC_INCHIKEY>
PXSKBNDFJPXFAO-UHFFFAOYSA-N

> <PUBCHEM_XLOGP3>
2.6

> <PUBCHEM_EXACT_MASS>
374.17293854

> <PUBCHEM_MOLECULAR_FORMULA>
C21H26O6

> <PUBCHEM_MOLECULAR_WEIGHT>
374.4

> <PUBCHEM_OPENEYE_CAN_SMILES>
C1COCCOC2=CC=CC=C2OCCOCCOC3=CC=CC=C3OC1

> <PUBCHEM_OPENEYE_ISO_SMILES>
C1COCCOC2=CC=CC=C2OCCOCCOC3=CC=CC=C3OC1

> <PUBCHEM_CACTVS_TPSA>
55.4

> <PUBCHEM_MONOISOTOPIC_WEIGHT>
374.17293854

> <PUBCHEM_TOTAL_CHARGE>
0

> <PUBCHEM_HEAVY_ATOM_COUNT>
27

> <PUBCHEM_ATOM_DEF_STEREO_COUNT>
0

> <PUBCHEM_ATOM_UDEF_STEREO_COUNT>
0

> <PUBCHEM_BOND_DEF_STEREO_COUNT>
0

> <PUBCHEM_BOND_UDEF_STEREO_COUNT>
0

> <PUBCHEM_ISOTOPIC_ATOM_COUNT>
0

> <PUBCHEM_COMPONENT_COUNT>
1

> <PUBCHEM_CACTVS_TAUTO_COUNT>
-1

> <PUBCHEM_COORDINATE_TYPE>
1
5
255

> <PUBCHEM_BONDANNOTATIONS>
12  13  8
12  20  8
13  21  8
17  19  8
17  22  8
19  23  8
20  24  8
21  25  8
22  26  8
23  27  8
24  25  8
26  27  8

$$$$
