 
  -OEChem-10192104372D

 42 42  0     0  0  0  0  0  0999 V2000
    2.8660   -1.0000    0.0000 O   0  0  0  0  0  0  0  0  0  0  0  0
    6.3301   -1.0000    0.0000 O   0  0  0  0  0  0  0  0  0  0  0  0
    2.8660    1.0000    0.0000 O   0  0  0  0  0  0  0  0  0  0  0  0
    6.3301    1.0000    0.0000 O   0  0  0  0  0  0  0  0  0  0  0  0
    4.5981    2.0000    0.0000 O   0  0  0  0  0  0  0  0  0  0  0  0
    3.7320    0.5000    0.0000 O   0  0  0  0  0  0  0  0  0  0  0  0
    5.4641    0.5000    0.0000 O   0  0  0  0  0  0  0  0  0  0  0  0
    4.5981   -1.0000    0.0000 C   0  0  0  0  0  0  0  0  0  0  0  0
    4.5981   -2.0000    0.0000 C   0  0  0  0  0  0  0  0  0  0  0  0
    3.7320   -0.5000    0.0000 C   0  0  0  0  0  0  0  0  0  0  0  0
    5.4641   -0.5000    0.0000 C   0  0  0  0  0  0  0  0  0  0  0  0
    3.7320   -2.5000    0.0000 C   0  0  0  0  0  0  0  0  0  0  0  0
    2.0000   -0.5000    0.0000 C   0  0  0  0  0  0  0  0  0  0  0  0
    7.1962   -0.5000    0.0000 C   0  0  0  0  0  0  0  0  0  0  0  0
    2.0000    0.5000    0.0000 C   0  0  0  0  0  0  0  0  0  0  0  0
    7.1962    0.5000    0.0000 C   0  0  0  0  0  0  0  0  0  0  0  0
    2.8660    2.0000    0.0000 C   0  0  0  0  0  0  0  0  0  0  0  0
    6.3301    2.0000    0.0000 C   0  0  0  0  0  0  0  0  0  0  0  0
    3.7320    2.5000    0.0000 C   0  0  0  0  0  0  0  0  0  0  0  0
    5.4641    2.5000    0.0000 C   0  0  0  0  0  0  0  0  0  0  0  0
    5.1350   -1.3100    0.0000 H   0  0  0  0  0  0  0  0  0  0  0  0
    4.8101   -2.5826    0.0000 H   0  0  0  0  0  0  0  0  0  0  0  0
    5.2087   -1.8923    0.0000 H   0  0  0  0  0  0  0  0  0  0  0  0
    3.4220   -1.9631    0.0000 H   0  0  0  0  0  0  0  0  0  0  0  0
    3.1951   -2.8100    0.0000 H   0  0  0  0  0  0  0  0  0  0  0  0
    4.0420   -3.0369    0.0000 H   0  0  0  0  0  0  0  0  0  0  0  0
    1.3894   -0.3923    0.0000 H   0  0  0  0  0  0  0  0  0  0  0  0
    1.7880   -1.0826    0.0000 H   0  0  0  0  0  0  0  0  0  0  0  0
    7.4082   -1.0826    0.0000 H   0  0  0  0  0  0  0  0  0  0  0  0
    7.8067   -0.3923    0.0000 H   0  0  0  0  0  0  0  0  0  0  0  0
    1.7880    1.0826    0.0000 H   0  0  0  0  0  0  0  0  0  0  0  0
    1.3894    0.3923    0.0000 H   0  0  0  0  0  0  0  0  0  0  0  0
    7.8067    0.3923    0.0000 H   0  0  0  0  0  0  0  0  0  0  0  0
    7.4082    1.0826    0.0000 H   0  0  0  0  0  0  0  0  0  0  0  0
    2.6540    2.5826    0.0000 H   0  0  0  0  0  0  0  0  0  0  0  0
    2.2554    1.8923    0.0000 H   0  0  0  0  0  0  0  0  0  0  0  0
    6.9407    1.8923    0.0000 H   0  0  0  0  0  0  0  0  0  0  0  0
    6.5422    2.5826    0.0000 H   0  0  0  0  0  0  0  0  0  0  0  0
    4.1306    2.9750    0.0000 H   0  0  0  0  0  0  0  0  0  0  0  0
    3.3335    2.9750    0.0000 H   0  0  0  0  0  0  0  0  0  0  0  0
    5.8626    2.9750    0.0000 H   0  0  0  0  0  0  0  0  0  0  0  0
    5.0656    2.9750    0.0000 H   0  0  0  0  0  0  0  0  0  0  0  0
  1 10  1  0  0  0  0
  1 13  1  0  0  0  0
  2 11  1  0  0  0  0
  2 14  1  0  0  0  0
  3 15  1  0  0  0  0
  3 17  1  0  0  0  0
  4 16  1  0  0  0  0
  4 18  1  0  0  0  0
  5 19  1  0  0  0  0
  5 20  1  0  0  0  0
  6 10  2  0  0  0  0
  7 11  2  0  0  0  0
  8  9  1  0  0  0  0
  8 10  1  0  0  0  0
  8 11  1  0  0  0  0
  8 21  1  0  0  0  0
  9 12  1  0  0  0  0
  9 22  1  0  0  0  0
  9 23  1  0  0  0  0
 12 24  1  0  0  0  0
 12 25  1  0  0  0  0
 12 26  1  0  0  0  0
 13 15  1  0  0  0  0
 13 27  1  0  0  0  0
 13 28  1  0  0  0  0
 14 16  1  0  0  0  0
 14 29  1  0  0  0  0
 14 30  1  0  0  0  0
 15 31  1  0  0  0  0
 15 32  1  0  0  0  0
 16 33  1  0  0  0  0
 16 34  1  0  0  0  0
 17 19  1  0  0  0  0
 17 35  1  0  0  0  0
 17 36  1  0  0  0  0
 18 20  1  0  0  0  0
 18 37  1  0  0  0  0
 18 38  1  0  0  0  0
 19 39  1  0  0  0  0
 19 40  1  0  0  0  0
 20 41  1  0  0  0  0
 20 42  1  0  0  0  0
M  END
> <PUBCHEM_COMPOUND_CID>
326445

> <PUBCHEM_COMPOUND_CANONICALIZED>
1

> <PUBCHEM_CACTVS_COMPLEXITY>
266

> <PUBCHEM_CACTVS_HBOND_ACCEPTOR>
7

> <PUBCHEM_CACTVS_HBOND_DONOR>
0

> <PUBCHEM_CACTVS_ROTATABLE_BOND>
1

> <PUBCHEM_CACTVS_SUBSKEYS>
AAADceBwOAAAAAAAAAAAAAAAAAAAAAAAAAAAAAAAAAAAAAAAAAAAGgAAAAAADQCggAICCAAABAAIAACQCAAAAAAAAAAAAAEAAAABABQIAAACAAAFIAACAAAAAAAIAAAAAAAAAAAAAAAAAAAAAAAAAAAAAA==

> <PUBCHEM_IUPAC_OPENEYE_NAME>
15-ethyl-1,4,7,10,13-pentaoxacyclohexadecane-14,16-dione

> <PUBCHEM_IUPAC_CAS_NAME>
15-ethyl-1,4,7,10,13-pentaoxacyclohexadecane-14,16-dione

> <PUBCHEM_IUPAC_NAME_MARKUP>
15-ethyl-1,4,7,10,13-pentaoxacyclohexadecane-14,16-dione

> <PUBCHEM_IUPAC_NAME>
15-ethyl-1,4,7,10,13-pentaoxacyclohexadecane-14,16-dione

> <PUBCHEM_IUPAC_SYSTEMATIC_NAME>
15-ethyl-1,4,7,10,13-pentaoxacyclohexadecane-14,16-dione

> <PUBCHEM_IUPAC_TRADITIONAL_NAME>
15-ethyl-1,4,7,10,13-pentaoxacyclohexadecane-14,16-quinone

> <PUBCHEM_IUPAC_INCHI>
InChI=1S/C13H22O7/c1-2-11-12(14)19-9-7-17-5-3-16-4-6-18-8-10-20-13(11)15/h11H,2-10H2,1H3

> <PUBCHEM_IUPAC_INCHIKEY>
BZXHLZBOZLLMGE-UHFFFAOYSA-N

> <PUBCHEM_XLOGP3_AA>
0.4

> <PUBCHEM_EXACT_MASS>
290.13655304

> <PUBCHEM_MOLECULAR_FORMULA>
C13H22O7

> <PUBCHEM_MOLECULAR_WEIGHT>
290.31

> <PUBCHEM_OPENEYE_CAN_SMILES>
CCC1C(=O)OCCOCCOCCOCCOC1=O

> <PUBCHEM_OPENEYE_ISO_SMILES>
CCC1C(=O)OCCOCCOCCOCCOC1=O

> <PUBCHEM_CACTVS_TPSA>
80.3

> <PUBCHEM_MONOISOTOPIC_WEIGHT>
290.13655304

> <PUBCHEM_TOTAL_CHARGE>
0

> <PUBCHEM_HEAVY_ATOM_COUNT>
20

> <PUBCHEM_ATOM_DEF_STEREO_COUNT>
0

> <PUBCHEM_ATOM_UDEF_STEREO_COUNT>
0

> <PUBCHEM_BOND_DEF_STEREO_COUNT>
0

> <PUBCHEM_BOND_UDEF_STEREO_COUNT>
0

> <PUBCHEM_ISOTOPIC_ATOM_COUNT>
0

> <PUBCHEM_COMPONENT_COUNT>
1

> <PUBCHEM_CACTVS_TAUTO_COUNT>
-1

> <PUBCHEM_COORDINATE_TYPE>
1
5
255

$$$$
