 
  -OEChem-10192104202D

 69 70  0     1  0  0  0  0  0999 V2000
    6.0010   -0.6550    0.0000 O   0  0  0  0  0  0  0  0  0  0  0  0
    4.2690    1.3450    0.0000 O   0  0  0  0  0  0  0  0  0  0  0  0
    6.0010    1.3450    0.0000 O   0  0  0  0  0  0  0  0  0  0  0  0
    5.1350   -2.1550    0.0000 O   0  0  0  0  0  0  0  0  0  0  0  0
    4.2690   -1.6550    0.0000 O   0  0  0  0  0  0  0  0  0  0  0  0
    2.5369   -0.6550    0.0000 O   0  0  0  0  0  0  0  0  0  0  0  0
    7.7331   -1.6550    0.0000 O   0  0  0  0  0  0  0  0  0  0  0  0
    7.7331   -3.6550    0.0000 O   0  0  0  0  0  0  0  0  0  0  0  0
    6.0010   -4.6550    0.0000 O   0  0  0  0  0  0  0  0  0  0  0  0
    2.5369    2.3450    0.0000 O   0  0  0  0  0  0  0  0  0  0  0  0
    4.2690    2.3450    0.0000 O   0  0  0  0  0  0  0  0  0  0  0  0
    7.7331    2.3450    0.0000 O   0  0  0  0  0  0  0  0  0  0  0  0
    7.7331    4.3450    0.0000 O   0  0  0  0  0  0  0  0  0  0  0  0
    4.2690    4.3450    0.0000 O   0  0  0  0  0  0  0  0  0  0  0  0
    5.1350   -0.1550    0.0000 C   0  0  3  0  0  0  0  0  0  0  0  0
    4.2690   -0.6550    0.0000 C   0  0  3  0  0  0  0  0  0  0  0  0
    5.1350    0.8450    0.0000 C   0  0  3  0  0  0  0  0  0  0  0  0
    3.4030   -0.1550    0.0000 C   0  0  3  0  0  0  0  0  0  0  0  0
    3.4030    0.8450    0.0000 C   0  0  3  0  0  0  0  0  0  0  0  0
    6.0010   -1.6550    0.0000 C   0  0  3  0  0  0  0  0  0  0  0  0
    6.8671   -2.1550    0.0000 C   0  0  3  0  0  0  0  0  0  0  0  0
    6.8671   -3.1550    0.0000 C   0  0  3  0  0  0  0  0  0  0  0  0
    6.0010   -3.6550    0.0000 C   0  0  3  0  0  0  0  0  0  0  0  0
    5.1350   -3.1550    0.0000 C   0  0  3  0  0  0  0  0  0  0  0  0
    6.0010    2.3450    0.0000 C   0  0  3  0  0  0  0  0  0  0  0  0
    2.5369    1.3450    0.0000 C   0  0  0  0  0  0  0  0  0  0  0  0
    6.8671    2.8450    0.0000 C   0  0  3  0  0  0  0  0  0  0  0  0
    5.1350    2.8450    0.0000 C   0  0  3  0  0  0  0  0  0  0  0  0
    4.2690   -3.6550    0.0000 C   0  0  0  0  0  0  0  0  0  0  0  0
    6.8671    3.8450    0.0000 C   0  0  3  0  0  0  0  0  0  0  0  0
    5.1350    3.8450    0.0000 C   0  0  0  0  0  0  0  0  0  0  0  0
    6.0010    4.3450    0.0000 C   0  0  0  0  0  0  0  0  0  0  0  0
    3.4030    2.8450    0.0000 C   0  0  0  0  0  0  0  0  0  0  0  0
    5.1350   -0.7750    0.0000 H   0  0  0  0  0  0  0  0  0  0  0  0
    3.7320   -0.9650    0.0000 H   0  0  0  0  0  0  0  0  0  0  0  0
    5.6720    0.5350    0.0000 H   0  0  0  0  0  0  0  0  0  0  0  0
    3.4030   -0.7750    0.0000 H   0  0  0  0  0  0  0  0  0  0  0  0
    3.4030    1.4650    0.0000 H   0  0  0  0  0  0  0  0  0  0  0  0
    6.5380   -1.3450    0.0000 H   0  0  0  0  0  0  0  0  0  0  0  0
    7.4040   -2.4650    0.0000 H   0  0  0  0  0  0  0  0  0  0  0  0
    6.8671   -3.7750    0.0000 H   0  0  0  0  0  0  0  0  0  0  0  0
    6.5380   -3.9650    0.0000 H   0  0  0  0  0  0  0  0  0  0  0  0
    4.5981   -2.8450    0.0000 H   0  0  0  0  0  0  0  0  0  0  0  0
    6.5380    2.0350    0.0000 H   0  0  0  0  0  0  0  0  0  0  0  0
    1.9264    1.4527    0.0000 H   0  0  0  0  0  0  0  0  0  0  0  0
    2.3249    0.7624    0.0000 H   0  0  0  0  0  0  0  0  0  0  0  0
    7.4040    3.1550    0.0000 H   0  0  0  0  0  0  0  0  0  0  0  0
    5.1350    2.2250    0.0000 H   0  0  0  0  0  0  0  0  0  0  0  0
    3.7320   -1.9650    0.0000 H   0  0  0  0  0  0  0  0  0  0  0  0
    3.9590   -3.1181    0.0000 H   0  0  0  0  0  0  0  0  0  0  0  0
    3.7320   -3.9650    0.0000 H   0  0  0  0  0  0  0  0  0  0  0  0
    4.5790   -4.1919    0.0000 H   0  0  0  0  0  0  0  0  0  0  0  0
    2.0000   -0.3450    0.0000 H   0  0  0  0  0  0  0  0  0  0  0  0
    6.8671    4.4650    0.0000 H   0  0  0  0  0  0  0  0  0  0  0  0
    8.2700   -1.9650    0.0000 H   0  0  0  0  0  0  0  0  0  0  0  0
    7.7331   -4.2750    0.0000 H   0  0  0  0  0  0  0  0  0  0  0  0
    5.4641   -4.9650    0.0000 H   0  0  0  0  0  0  0  0  0  0  0  0
    5.7456    3.7373    0.0000 H   0  0  0  0  0  0  0  0  0  0  0  0
    5.3471    4.4276    0.0000 H   0  0  0  0  0  0  0  0  0  0  0  0
    2.0000    2.6550    0.0000 H   0  0  0  0  0  0  0  0  0  0  0  0
    6.3110    4.8819    0.0000 H   0  0  0  0  0  0  0  0  0  0  0  0
    5.4641    4.6550    0.0000 H   0  0  0  0  0  0  0  0  0  0  0  0
    5.6910    3.8081    0.0000 H   0  0  0  0  0  0  0  0  0  0  0  0
    8.2700    2.6550    0.0000 H   0  0  0  0  0  0  0  0  0  0  0  0
    7.7331    4.9650    0.0000 H   0  0  0  0  0  0  0  0  0  0  0  0
    3.7130    3.3819    0.0000 H   0  0  0  0  0  0  0  0  0  0  0  0
    2.8660    3.1550    0.0000 H   0  0  0  0  0  0  0  0  0  0  0  0
    3.0930    2.3081    0.0000 H   0  0  0  0  0  0  0  0  0  0  0  0
    4.2690    4.9650    0.0000 H   0  0  0  0  0  0  0  0  0  0  0  0
  1 15  1  0  0  0  0
  1 20  1  0  0  0  0
  2 17  1  0  0  0  0
  2 19  1  0  0  0  0
  3 17  1  0  0  0  0
  3 25  1  0  0  0  0
  4 20  1  0  0  0  0
  4 24  1  0  0  0  0
  5 16  1  0  0  0  0
  5 49  1  0  0  0  0
  6 18  1  0  0  0  0
  6 53  1  0  0  0  0
  7 21  1  0  0  0  0
  7 55  1  0  0  0  0
  8 22  1  0  0  0  0
  8 56  1  0  0  0  0
  9 23  1  0  0  0  0
  9 57  1  0  0  0  0
 10 26  1  0  0  0  0
 10 60  1  0  0  0  0
 11 28  1  0  0  0  0
 11 33  1  0  0  0  0
 12 27  1  0  0  0  0
 12 64  1  0  0  0  0
 13 30  1  0  0  0  0
 13 65  1  0  0  0  0
 14 31  1  0  0  0  0
 14 69  1  0  0  0  0
 15 16  1  0  0  0  0
 15 17  1  0  0  0  0
 15 34  1  0  0  0  0
 16 18  1  0  0  0  0
 16 35  1  0  0  0  0
 17 36  1  0  0  0  0
 18 19  1  0  0  0  0
 18 37  1  0  0  0  0
 19 26  1  0  0  0  0
 19 38  1  0  0  0  0
 20 21  1  0  0  0  0
 20 39  1  0  0  0  0
 21 22  1  0  0  0  0
 21 40  1  0  0  0  0
 22 23  1  0  0  0  0
 22 41  1  0  0  0  0
 23 24  1  0  0  0  0
 23 42  1  0  0  0  0
 24 29  1  0  0  0  0
 24 43  1  0  0  0  0
 25 27  1  0  0  0  0
 25 28  1  0  0  0  0
 25 44  1  0  0  0  0
 26 45  1  0  0  0  0
 26 46  1  0  0  0  0
 27 30  1  0  0  0  0
 27 47  1  0  0  0  0
 28 31  1  0  0  0  0
 28 48  1  0  0  0  0
 29 50  1  0  0  0  0
 29 51  1  0  0  0  0
 29 52  1  0  0  0  0
 30 32  1  0  0  0  0
 30 54  1  0  0  0  0
 31 58  1  0  0  0  0
 31 59  1  0  0  0  0
 32 61  1  0  0  0  0
 32 62  1  0  0  0  0
 32 63  1  0  0  0  0
 33 66  1  0  0  0  0
 33 67  1  0  0  0  0
 33 68  1  0  0  0  0
M  END
> <PUBCHEM_COMPOUND_CID>
139503744

> <PUBCHEM_COMPOUND_CANONICALIZED>
1

> <PUBCHEM_CACTVS_COMPLEXITY>
583

> <PUBCHEM_CACTVS_HBOND_ACCEPTOR>
14

> <PUBCHEM_CACTVS_HBOND_DONOR>
9

> <PUBCHEM_CACTVS_ROTATABLE_BOND>
10

> <PUBCHEM_CACTVS_SUBSKEYS>
AAADcfB4PAAAAAAAAAAAAAAAAAAAAAAAAAAkSAAAAAAAAAAAAAAAGgAACAAACBSwgAMCCAAABgAAAAAAAAAAAAAAAAAAAAAAAAAREAIAAAAiQAAFAAAHAAHAYAwAAAAAAAAAAAAAAAAAAAAAAAAAAAAAAA==

> <PUBCHEM_IUPAC_OPENEYE_NAME>
2-[2-[2,3-dihydroxy-1-(2-hydroxy-1-methoxy-ethyl)butoxy]-4,5-dihydroxy-6-(hydroxymethyl)tetrahydropyran-3-yl]oxy-6-methyl-tetrahydropyran-3,4,5-triol

> <PUBCHEM_IUPAC_CAS_NAME>
2-[[4,5-dihydroxy-6-(hydroxymethyl)-2-(1,4,5-trihydroxy-2-methoxyhexan-3-yl)oxy-3-oxanyl]oxy]-6-methyloxane-3,4,5-triol

> <PUBCHEM_IUPAC_NAME_MARKUP>
2-[4,5-dihydroxy-6-(hydroxymethyl)-2-(1,4,5-trihydroxy-2-methoxyhexan-3-yl)oxyoxan-3-yl]oxy-6-methyloxane-3,4,5-triol

> <PUBCHEM_IUPAC_NAME>
2-[4,5-dihydroxy-6-(hydroxymethyl)-2-(1,4,5-trihydroxy-2-methoxyhexan-3-yl)oxyoxan-3-yl]oxy-6-methyloxane-3,4,5-triol

> <PUBCHEM_IUPAC_SYSTEMATIC_NAME>
2-[6-(hydroxymethyl)-2-[2-methoxy-1,4,5-tris(oxidanyl)hexan-3-yl]oxy-4,5-bis(oxidanyl)oxan-3-yl]oxy-6-methyl-oxane-3,4,5-triol

> <PUBCHEM_IUPAC_TRADITIONAL_NAME>
2-[2-[2,3-dihydroxy-1-(2-hydroxy-1-methoxy-ethyl)butoxy]-4,5-dihydroxy-6-methylol-tetrahydropyran-3-yl]oxy-6-methyl-tetrahydropyran-3,4,5-triol

> <PUBCHEM_IUPAC_INCHI>
InChI=1S/C19H36O14/c1-6(22)10(23)16(9(5-21)29-3)32-19-17(14(27)12(25)8(4-20)31-19)33-18-15(28)13(26)11(24)7(2)30-18/h6-28H,4-5H2,1-3H3

> <PUBCHEM_IUPAC_INCHIKEY>
NYHWMTSPVRGCBR-UHFFFAOYSA-N

> <PUBCHEM_XLOGP3_AA>
-4.7

> <PUBCHEM_EXACT_MASS>
488.21050582

> <PUBCHEM_MOLECULAR_FORMULA>
C19H36O14

> <PUBCHEM_MOLECULAR_WEIGHT>
488.5

> <PUBCHEM_OPENEYE_CAN_SMILES>
CC1C(C(C(C(O1)OC2C(C(C(OC2OC(C(CO)OC)C(C(C)O)O)CO)O)O)O)O)O

> <PUBCHEM_OPENEYE_ISO_SMILES>
CC1C(C(C(C(O1)OC2C(C(C(OC2OC(C(CO)OC)C(C(C)O)O)CO)O)O)O)O)O

> <PUBCHEM_CACTVS_TPSA>
228

> <PUBCHEM_MONOISOTOPIC_WEIGHT>
488.21050582

> <PUBCHEM_TOTAL_CHARGE>
0

> <PUBCHEM_HEAVY_ATOM_COUNT>
33

> <PUBCHEM_ATOM_DEF_STEREO_COUNT>
0

> <PUBCHEM_ATOM_UDEF_STEREO_COUNT>
14

> <PUBCHEM_BOND_DEF_STEREO_COUNT>
0

> <PUBCHEM_BOND_UDEF_STEREO_COUNT>
0

> <PUBCHEM_ISOTOPIC_ATOM_COUNT>
0

> <PUBCHEM_COMPONENT_COUNT>
1

> <PUBCHEM_CACTVS_TAUTO_COUNT>
-1

> <PUBCHEM_COORDINATE_TYPE>
1
5
255

> <PUBCHEM_BONDANNOTATIONS>
15  1  3
20  1  3
27  12  3
30  13  3
19  26  3
24  29  3
28  31  3
17  3  3
25  3  3
16  5  3
18  6  3
21  7  3
22  8  3
23  9  3

$$$$
