 
  -OEChem-10192104352D

 38 40  0     1  0  0  0  0  0999 V2000
    2.5614   -0.5956    0.0000 O   0  0  0  0  0  0  0  0  0  0  0  0
    4.7865   -3.1208    0.0000 O   0  0  0  0  0  0  0  0  0  0  0  0
    3.2966    0.9727    0.0000 O   0  0  0  0  0  0  0  0  0  0  0  0
    3.2152   -2.3921    0.0000 O   0  0  0  0  0  0  0  0  0  0  0  0
    8.0637    3.0844    0.0000 O   0  0  0  0  0  0  0  0  0  0  0  0
    4.7482    2.5844    0.0000 O   0  0  0  0  0  0  0  0  0  0  0  0
    6.3907    3.5327    0.0000 O   0  0  0  0  0  0  0  0  0  0  0  0
    4.2999    0.9114    0.0000 O   0  0  0  0  0  0  0  0  0  0  0  0
    5.2360   -0.1072    0.0000 C   0  0  3  0  0  0  0  0  0  0  0  0
    5.5780   -1.0469    0.0000 C   0  0  3  0  0  0  0  0  0  0  0  0
    7.2096    0.5110    0.0000 C   0  0  3  0  0  0  0  0  0  0  0  0
    6.9508   -0.4549    0.0000 C   0  0  3  0  0  0  0  0  0  0  0  0
    4.2871   -0.4482    0.0000 C   0  0  3  0  0  0  0  0  0  0  0  0
    4.6320   -1.3957    0.0000 C   0  0  3  0  0  0  0  0  0  0  0  0
    6.8390    1.8596    0.0000 C   0  0  3  0  0  0  0  0  0  0  0  0
    5.9730    1.3596    0.0000 C   0  0  3  0  0  0  0  0  0  0  0  0
    8.6085    0.0022    0.0000 C   0  0  0  0  0  0  0  0  0  0  0  0
    8.3497   -0.9637    0.0000 C   0  0  0  0  0  0  0  0  0  0  0  0
    3.3817   -0.0237    0.0000 C   0  0  0  0  0  0  0  0  0  0  0  0
    4.2112   -2.3028    0.0000 C   0  0  0  0  0  0  0  0  0  0  0  0
    7.0978    2.8256    0.0000 C   0  0  0  0  0  0  0  0  0  0  0  0
    5.0070    1.6185    0.0000 C   0  0  0  0  0  0  0  0  0  0  0  0
    5.0385    0.4804    0.0000 H   0  0  0  0  0  0  0  0  0  0  0  0
    5.8081   -1.6227    0.0000 H   0  0  0  0  0  0  0  0  0  0  0  0
    7.6653    0.9314    0.0000 H   0  0  0  0  0  0  0  0  0  0  0  0
    7.3562    0.0142    0.0000 H   0  0  0  0  0  0  0  0  0  0  0  0
    3.8296   -0.8666    0.0000 H   0  0  0  0  0  0  0  0  0  0  0  0
    5.0523   -1.8515    0.0000 H   0  0  0  0  0  0  0  0  0  0  0  0
    7.4590    1.8616    0.0000 H   0  0  0  0  0  0  0  0  0  0  0  0
    5.8920    1.9744    0.0000 H   0  0  0  0  0  0  0  0  0  0  0  0
    9.2025   -0.1756    0.0000 H   0  0  0  0  0  0  0  0  0  0  0  0
    8.8034    0.5908    0.0000 H   0  0  0  0  0  0  0  0  0  0  0  0
    8.1548   -1.5523    0.0000 H   0  0  0  0  0  0  0  0  0  0  0  0
    8.9437   -1.1415    0.0000 H   0  0  0  0  0  0  0  0  0  0  0  0
    2.0000   -0.3324    0.0000 H   0  0  0  0  0  0  0  0  0  0  0  0
    4.5256   -3.6833    0.0000 H   0  0  0  0  0  0  0  0  0  0  0  0
    8.2242    3.6833    0.0000 H   0  0  0  0  0  0  0  0  0  0  0  0
    4.1493    2.7449    0.0000 H   0  0  0  0  0  0  0  0  0  0  0  0
  1 19  1  0  0  0  0
  1 35  1  0  0  0  0
  2 20  1  0  0  0  0
  2 36  1  0  0  0  0
  3 19  2  0  0  0  0
  4 20  2  0  0  0  0
  5 21  1  0  0  0  0
  5 37  1  0  0  0  0
  6 22  1  0  0  0  0
  6 38  1  0  0  0  0
  7 21  2  0  0  0  0
  8 22  2  0  0  0  0
  9 10  1  0  0  0  0
  9 11  1  0  0  0  0
  9 13  1  0  0  0  0
  9 23  1  0  0  0  0
 10 12  1  0  0  0  0
 10 14  1  0  0  0  0
 10 24  1  0  0  0  0
 11 15  1  0  0  0  0
 11 17  1  0  0  0  0
 11 25  1  0  0  0  0
 12 16  1  0  0  0  0
 12 18  1  0  0  0  0
 12 26  1  0  0  0  0
 13 14  1  0  0  0  0
 13 19  1  0  0  0  0
 13 27  1  0  0  0  0
 14 20  1  0  0  0  0
 14 28  1  0  0  0  0
 15 16  1  0  0  0  0
 15 21  1  0  0  0  0
 15 29  1  0  0  0  0
 16 22  1  0  0  0  0
 16 30  1  0  0  0  0
 17 18  1  0  0  0  0
 17 31  1  0  0  0  0
 17 32  1  0  0  0  0
 18 33  1  0  0  0  0
 18 34  1  0  0  0  0
M  END
> <PUBCHEM_COMPOUND_CID>
89585379

> <PUBCHEM_COMPOUND_CANONICALIZED>
1

> <PUBCHEM_CACTVS_COMPLEXITY>
519

> <PUBCHEM_CACTVS_HBOND_ACCEPTOR>
8

> <PUBCHEM_CACTVS_HBOND_DONOR>
4

> <PUBCHEM_CACTVS_ROTATABLE_BOND>
4

> <PUBCHEM_CACTVS_SUBSKEYS>
AAADceBwPAAAAAAAAAAAAAAAAABgAAAAAAAwYMAAAAAYAAAAAAAAGgAACAAADQCAgAAACAAAAgAIAACQCAAAAAAAAAAAAAEAAAAAABIAAAAAQAAEAAAAAAHLyPCOgAAAAAAAAACAAAQAACAAAAAAAAAAAA==

> <PUBCHEM_IUPAC_OPENEYE_NAME>
tricyclo[4.2.2.02,5]decane-3,4,7,8-tetracarboxylic acid

> <PUBCHEM_IUPAC_CAS_NAME>
tricyclo[4.2.2.02,5]decane-3,4,7,8-tetracarboxylic acid

> <PUBCHEM_IUPAC_NAME_MARKUP>
tricyclo[4.2.2.0<SUP>2,5</SUP>]decane-3,4,7,8-tetracarboxylic acid

> <PUBCHEM_IUPAC_NAME>
tricyclo[4.2.2.02,5]decane-3,4,7,8-tetracarboxylic acid

> <PUBCHEM_IUPAC_SYSTEMATIC_NAME>
tricyclo[4.2.2.02,5]decane-3,4,7,8-tetracarboxylic acid

> <PUBCHEM_IUPAC_TRADITIONAL_NAME>
tricyclo[4.2.2.02,5]decane-3,4,7,8-tetracarboxylic acid

> <PUBCHEM_IUPAC_INCHI>
InChI=1S/C14H16O8/c15-11(16)7-3-1-2-4(8(7)12(17)18)6-5(3)9(13(19)20)10(6)14(21)22/h3-10H,1-2H2,(H,15,16)(H,17,18)(H,19,20)(H,21,22)

> <PUBCHEM_IUPAC_INCHIKEY>
LKZYDTBJCRSKHN-UHFFFAOYSA-N

> <PUBCHEM_XLOGP3_AA>
-0.2

> <PUBCHEM_EXACT_MASS>
312.08451746

> <PUBCHEM_MOLECULAR_FORMULA>
C14H16O8

> <PUBCHEM_MOLECULAR_WEIGHT>
312.27

> <PUBCHEM_OPENEYE_CAN_SMILES>
C1CC2C3C(C1C(C2C(=O)O)C(=O)O)C(C3C(=O)O)C(=O)O

> <PUBCHEM_OPENEYE_ISO_SMILES>
C1CC2C3C(C1C(C2C(=O)O)C(=O)O)C(C3C(=O)O)C(=O)O

> <PUBCHEM_CACTVS_TPSA>
149

> <PUBCHEM_MONOISOTOPIC_WEIGHT>
312.08451746

> <PUBCHEM_TOTAL_CHARGE>
0

> <PUBCHEM_HEAVY_ATOM_COUNT>
22

> <PUBCHEM_ATOM_DEF_STEREO_COUNT>
0

> <PUBCHEM_ATOM_UDEF_STEREO_COUNT>
8

> <PUBCHEM_BOND_DEF_STEREO_COUNT>
0

> <PUBCHEM_BOND_UDEF_STEREO_COUNT>
0

> <PUBCHEM_ISOTOPIC_ATOM_COUNT>
0

> <PUBCHEM_COMPONENT_COUNT>
1

> <PUBCHEM_CACTVS_TAUTO_COUNT>
-1

> <PUBCHEM_COORDINATE_TYPE>
1
5
255

> <PUBCHEM_BONDANNOTATIONS>
10  14  3
11  17  3
12  18  3
13  19  3
14  20  3
15  21  3
16  22  3
9  13  3

$$$$
