 
  -OEChem-10192104352D

 54 55  0     1  0  0  0  0  0999 V2000
    3.4030   -2.0000    0.0000 P   0  0  0  0  0  0  0  0  0  0  0  0
    6.0010   -0.5000    0.0000 O   0  0  0  0  0  0  0  0  0  0  0  0
    7.7331   -0.5000    0.0000 O   0  0  0  0  0  0  0  0  0  0  0  0
    8.5991    2.0000    0.0000 O   0  0  0  0  0  0  0  0  0  0  0  0
    4.2690   -2.5000    0.0000 O   0  0  0  0  0  0  0  0  0  0  0  0
    9.4651   -0.5000    0.0000 O   0  0  0  0  0  0  0  0  0  0  0  0
    9.4651    3.5000    0.0000 O   0  0  0  0  0  0  0  0  0  0  0  0
    4.2690    0.5000    0.0000 O   0  0  0  0  0  0  0  0  0  0  0  0
    2.5369   -1.5000    0.0000 O   0  0  0  0  0  0  0  0  0  0  0  0
    2.9030   -2.8660    0.0000 O   0  0  0  0  0  0  0  0  0  0  0  0
    3.9030   -1.1340    0.0000 O   0  0  0  0  0  0  0  0  0  0  0  0
    6.0010   -3.5000    0.0000 N   0  0  0  0  0  0  0  0  0  0  0  0
    7.7331   -2.5000    0.0000 N   0  0  0  0  0  0  0  0  0  0  0  0
   11.1972    0.5000    0.0000 N   0  0  0  0  0  0  0  0  0  0  0  0
   11.1972    2.5000    0.0000 N   0  0  0  0  0  0  0  0  0  0  0  0
    6.0010   -2.5000    0.0000 C   0  0  2  0  0  0  0  0  0  0  0  0
    6.8671   -2.0000    0.0000 C   0  0  2  0  0  0  0  0  0  0  0  0
    5.1350   -2.0000    0.0000 C   0  0  1  0  0  0  0  0  0  0  0  0
    6.8671   -1.0000    0.0000 C   0  0  1  0  0  0  0  0  0  0  0  0
    5.1350   -1.0000    0.0000 C   0  0  1  0  0  0  0  0  0  0  0  0
    8.5991    1.0000    0.0000 C   0  0  1  0  0  0  0  0  0  0  0  0
    9.4651    0.5000    0.0000 C   0  0  2  0  0  0  0  0  0  0  0  0
   10.3312    1.0000    0.0000 C   0  0  1  0  0  0  0  0  0  0  0  0
   10.3312    2.0000    0.0000 C   0  0  2  0  0  0  0  0  0  0  0  0
    7.7331    0.5000    0.0000 C   0  0  0  0  0  0  0  0  0  0  0  0
    9.4651    2.5000    0.0000 C   0  0  1  0  0  0  0  0  0  0  0  0
    4.2690   -0.5000    0.0000 C   0  0  0  0  0  0  0  0  0  0  0  0
    5.4641   -2.8100    0.0000 H   0  0  0  0  0  0  0  0  0  0  0  0
    6.8671   -2.6200    0.0000 H   0  0  0  0  0  0  0  0  0  0  0  0
    5.1350   -2.6200    0.0000 H   0  0  0  0  0  0  0  0  0  0  0  0
    6.8671   -0.3800    0.0000 H   0  0  0  0  0  0  0  0  0  0  0  0
    5.1350   -0.3800    0.0000 H   0  0  0  0  0  0  0  0  0  0  0  0
    8.0622    1.3100    0.0000 H   0  0  0  0  0  0  0  0  0  0  0  0
   10.0021    0.1900    0.0000 H   0  0  0  0  0  0  0  0  0  0  0  0
   10.8681    1.3100    0.0000 H   0  0  0  0  0  0  0  0  0  0  0  0
   10.8681    1.6900    0.0000 H   0  0  0  0  0  0  0  0  0  0  0  0
    7.5210    1.0826    0.0000 H   0  0  0  0  0  0  0  0  0  0  0  0
    7.1225    0.3923    0.0000 H   0  0  0  0  0  0  0  0  0  0  0  0
   10.0021    2.8100    0.0000 H   0  0  0  0  0  0  0  0  0  0  0  0
    3.6584   -0.3923    0.0000 H   0  0  0  0  0  0  0  0  0  0  0  0
    4.0569   -1.0826    0.0000 H   0  0  0  0  0  0  0  0  0  0  0  0
    6.5380   -3.8100    0.0000 H   0  0  0  0  0  0  0  0  0  0  0  0
    5.4641   -3.8100    0.0000 H   0  0  0  0  0  0  0  0  0  0  0  0
    8.2700   -2.1900    0.0000 H   0  0  0  0  0  0  0  0  0  0  0  0
    7.7331   -3.1200    0.0000 H   0  0  0  0  0  0  0  0  0  0  0  0
   11.7341    0.8100    0.0000 H   0  0  0  0  0  0  0  0  0  0  0  0
   11.1972   -0.1200    0.0000 H   0  0  0  0  0  0  0  0  0  0  0  0
   11.1972    3.1200    0.0000 H   0  0  0  0  0  0  0  0  0  0  0  0
   11.7341    2.1900    0.0000 H   0  0  0  0  0  0  0  0  0  0  0  0
   10.0021   -0.8100    0.0000 H   0  0  0  0  0  0  0  0  0  0  0  0
    8.9282    3.8100    0.0000 H   0  0  0  0  0  0  0  0  0  0  0  0
    3.7320    0.8100    0.0000 H   0  0  0  0  0  0  0  0  0  0  0  0
    2.0000   -1.8100    0.0000 H   0  0  0  0  0  0  0  0  0  0  0  0
    2.2830   -2.8660    0.0000 H   0  0  0  0  0  0  0  0  0  0  0  0
  1  5  1  0  0  0  0
  1  9  1  0  0  0  0
  1 10  1  0  0  0  0
  1 11  2  0  0  0  0
  2 19  1  0  0  0  0
  2 20  1  0  0  0  0
 19  3  1  1  0  0  0
  3 25  1  0  0  0  0
  4 21  1  0  0  0  0
  4 26  1  0  0  0  0
 18  5  1  6  0  0  0
 22  6  1  6  0  0  0
  6 50  1  0  0  0  0
 26  7  1  1  0  0  0
  7 51  1  0  0  0  0
  8 27  1  0  0  0  0
  8 52  1  0  0  0  0
  9 53  1  0  0  0  0
 10 54  1  0  0  0  0
 16 12  1  1  0  0  0
 12 42  1  0  0  0  0
 12 43  1  0  0  0  0
 17 13  1  6  0  0  0
 13 44  1  0  0  0  0
 13 45  1  0  0  0  0
 23 14  1  1  0  0  0
 14 46  1  0  0  0  0
 14 47  1  0  0  0  0
 24 15  1  6  0  0  0
 15 48  1  0  0  0  0
 15 49  1  0  0  0  0
 16 17  1  0  0  0  0
 16 18  1  0  0  0  0
 16 28  1  0  0  0  0
 17 19  1  0  0  0  0
 17 29  1  0  0  0  0
 18 20  1  0  0  0  0
 18 30  1  0  0  0  0
 19 31  1  0  0  0  0
 20 27  1  1  0  0  0
 20 32  1  0  0  0  0
 21 22  1  0  0  0  0
 21 25  1  1  0  0  0
 21 33  1  0  0  0  0
 22 23  1  0  0  0  0
 22 34  1  0  0  0  0
 23 24  1  0  0  0  0
 23 35  1  0  0  0  0
 24 26  1  0  0  0  0
 24 36  1  0  0  0  0
 25 37  1  0  0  0  0
 25 38  1  0  0  0  0
 26 39  1  0  0  0  0
 27 40  1  0  0  0  0
 27 41  1  0  0  0  0
M  END
> <PUBCHEM_COMPOUND_CID>
91846805

> <PUBCHEM_COMPOUND_CANONICALIZED>
1

> <PUBCHEM_CACTVS_COMPLEXITY>
540

> <PUBCHEM_CACTVS_HBOND_ACCEPTOR>
14

> <PUBCHEM_CACTVS_HBOND_DONOR>
9

> <PUBCHEM_CACTVS_ROTATABLE_BOND>
6

> <PUBCHEM_CACTVS_SUBSKEYS>
AAADceBzvAIAAAAAAAAAAAAAAAAAAAAAAAAkSAAAAAAAAAAAAAAAHgAQCCAACDzxgAcACABABxAAQAAAAIAAAAAAAAAAAIAAAAATUAIAgAAjQAAHEAAHAAHwcA0AAAAAAAAAAAAAAAAAAAAAAAAAAAAAAA==

> <PUBCHEM_IUPAC_OPENEYE_NAME>
[(2R,3S,4R,5R,6R)-4,5-diamino-6-[[(2R,3S,4R,5R,6R)-4,5-diamino-3,6-dihydroxy-tetrahydropyran-2-yl]methoxy]-2-(hydroxymethyl)tetrahydropyran-3-yl] dihydrogen phosphate

> <PUBCHEM_IUPAC_CAS_NAME>
[(2R,3S,4R,5R,6R)-4,5-diamino-6-[[(2R,3S,4R,5R,6R)-4,5-diamino-3,6-dihydroxy-2-oxanyl]methoxy]-2-(hydroxymethyl)-3-oxanyl] dihydrogen phosphate

> <PUBCHEM_IUPAC_NAME_MARKUP>
[(2<I>R</I>,3<I>S</I>,4<I>R</I>,5<I>R</I>,6<I>R</I>)-4,5-diamino-6-[[(2<I>R</I>,3<I>S</I>,4<I>R</I>,5<I>R</I>,6<I>R</I>)-4,5-diamino-3,6-dihydroxyoxan-2-yl]methoxy]-2-(hydroxymethyl)oxan-3-yl] dihydrogen phosphate

> <PUBCHEM_IUPAC_NAME>
[(2R,3S,4R,5R,6R)-4,5-diamino-6-[[(2R,3S,4R,5R,6R)-4,5-diamino-3,6-dihydroxyoxan-2-yl]methoxy]-2-(hydroxymethyl)oxan-3-yl] dihydrogen phosphate

> <PUBCHEM_IUPAC_SYSTEMATIC_NAME>
[(2R,3S,4R,5R,6R)-4,5-bis(azanyl)-6-[[(2R,3S,4R,5R,6R)-4,5-bis(azanyl)-3,6-bis(oxidanyl)oxan-2-yl]methoxy]-2-(hydroxymethyl)oxan-3-yl] dihydrogen phosphate

> <PUBCHEM_IUPAC_TRADITIONAL_NAME>
[(2R,3S,4R,5R,6R)-4,5-diamino-6-[[(2R,3S,4R,5R,6R)-4,5-diamino-3,6-dihydroxy-tetrahydropyran-2-yl]methoxy]-2-methylol-tetrahydropyran-3-yl] dihydrogen phosphate

> <PUBCHEM_IUPAC_INCHI>
InChI=1S/C12H27N4O10P/c13-5-7(15)11(19)24-4(9(5)18)2-23-12-8(16)6(14)10(3(1-17)25-12)26-27(20,21)22/h3-12,17-19H,1-2,13-16H2,(H2,20,21,22)/t3-,4-,5-,6-,7-,8-,9-,10-,11-,12-/m1/s1

> <PUBCHEM_IUPAC_INCHIKEY>
PHEOZUZRUYZHEG-GQJDJNEMSA-N

> <PUBCHEM_XLOGP3_AA>
-9.7

> <PUBCHEM_EXACT_MASS>
418.14648007

> <PUBCHEM_MOLECULAR_FORMULA>
C12H27N4O10P

> <PUBCHEM_MOLECULAR_WEIGHT>
418.34

> <PUBCHEM_OPENEYE_CAN_SMILES>
C(C1C(C(C(C(O1)OCC2C(C(C(C(O2)O)N)N)O)N)N)OP(=O)(O)O)O

> <PUBCHEM_OPENEYE_ISO_SMILES>
C([C@@H]1[C@H]([C@@H]([C@H]([C@@H](O1)OC[C@@H]2[C@H]([C@@H]([C@H]([C@@H](O2)O)N)N)O)N)N)OP(=O)(O)O)O

> <PUBCHEM_CACTVS_TPSA>
259

> <PUBCHEM_MONOISOTOPIC_WEIGHT>
418.14648007

> <PUBCHEM_TOTAL_CHARGE>
0

> <PUBCHEM_HEAVY_ATOM_COUNT>
27

> <PUBCHEM_ATOM_DEF_STEREO_COUNT>
10

> <PUBCHEM_ATOM_UDEF_STEREO_COUNT>
0

> <PUBCHEM_BOND_DEF_STEREO_COUNT>
0

> <PUBCHEM_BOND_UDEF_STEREO_COUNT>
0

> <PUBCHEM_ISOTOPIC_ATOM_COUNT>
0

> <PUBCHEM_COMPONENT_COUNT>
1

> <PUBCHEM_CACTVS_TAUTO_COUNT>
-1

> <PUBCHEM_COORDINATE_TYPE>
1
5
255

> <PUBCHEM_BONDANNOTATIONS>
16  12  5
17  13  6
23  14  5
24  15  6
20  27  5
21  25  5
19  3  5
18  5  6
22  6  6
26  7  5

$$$$
