 
  -OEChem-10192103332D

 22 22  0     1  0  0  0  0  0999 V2000
    2.5369    0.5950    0.0000 O   0  0  0  0  0  0  0  0  0  0  0  0
    5.1350    2.0950    0.0000 O   0  0  0  0  0  0  0  0  0  0  0  0
    6.0010   -2.4050    0.0000 O   0  0  0  0  0  0  0  0  0  0  0  0
    3.4030    2.0950    0.0000 O   0  0  0  0  0  0  0  0  0  0  0  0
    4.2690    0.5950    0.0000 C   0  0  3  0  0  0  0  0  0  0  0  0
    3.4030    0.0950    0.0000 C   0  0  3  0  0  0  0  0  0  0  0  0
    5.1350    0.0950    0.0000 C   0  0  0  0  0  0  0  0  0  0  0  0
    5.1350   -0.9050    0.0000 C   0  0  0  0  0  0  0  0  0  0  0  0
    3.4030   -0.9050    0.0000 C   0  0  0  0  0  0  0  0  0  0  0  0
    4.2690   -1.4050    0.0000 C   0  0  0  0  0  0  0  0  0  0  0  0
    4.2690    1.5950    0.0000 C   0  0  0  0  0  0  0  0  0  0  0  0
    6.0010   -1.4050    0.0000 C   0  0  0  0  0  0  0  0  0  0  0  0
    4.8059    0.9050    0.0000 H   0  0  0  0  0  0  0  0  0  0  0  0
    3.4030    0.7150    0.0000 H   0  0  0  0  0  0  0  0  0  0  0  0
    5.6720    0.4050    0.0000 H   0  0  0  0  0  0  0  0  0  0  0  0
    2.8660   -1.2150    0.0000 H   0  0  0  0  0  0  0  0  0  0  0  0
    4.2690   -2.0250    0.0000 H   0  0  0  0  0  0  0  0  0  0  0  0
    6.6116   -1.5127    0.0000 H   0  0  0  0  0  0  0  0  0  0  0  0
    6.2131   -0.8224    0.0000 H   0  0  0  0  0  0  0  0  0  0  0  0
    2.0000    0.2850    0.0000 H   0  0  0  0  0  0  0  0  0  0  0  0
    5.1350    2.7150    0.0000 H   0  0  0  0  0  0  0  0  0  0  0  0
    6.5380   -2.7150    0.0000 H   0  0  0  0  0  0  0  0  0  0  0  0
  1  6  1  0  0  0  0
  1 20  1  0  0  0  0
  2 11  1  0  0  0  0
  2 21  1  0  0  0  0
  3 12  1  0  0  0  0
  3 22  1  0  0  0  0
  4 11  2  0  0  0  0
  5  6  1  0  0  0  0
  5  7  1  0  0  0  0
  5 11  1  0  0  0  0
  5 13  1  0  0  0  0
  6  9  1  0  0  0  0
  6 14  1  0  0  0  0
  7  8  2  0  0  0  0
  7 15  1  0  0  0  0
  8 10  1  0  0  0  0
  8 12  1  0  0  0  0
  9 10  2  0  0  0  0
  9 16  1  0  0  0  0
 10 17  1  0  0  0  0
 12 18  1  0  0  0  0
 12 19  1  0  0  0  0
M  END
> <PUBCHEM_COMPOUND_CID>
89318782

> <PUBCHEM_COMPOUND_CANONICALIZED>
1

> <PUBCHEM_CACTVS_COMPLEXITY>
241

> <PUBCHEM_CACTVS_HBOND_ACCEPTOR>
4

> <PUBCHEM_CACTVS_HBOND_DONOR>
3

> <PUBCHEM_CACTVS_ROTATABLE_BOND>
2

> <PUBCHEM_CACTVS_SUBSKEYS>
AAADccBwOAAAAAAAAAAAAAAAAAAAAAAAAAAgAAAAAAAAAAAAAAAAGgAACAAADRSggAIACAAAAgCIAiDSCAAAAAAgAAAICAEAAAgIFBQAAQAAUAAF4AAIkAIAAAAIAAAAAAAAAAAAAAAAAAAAAAAAAAAAAA==

> <PUBCHEM_IUPAC_OPENEYE_NAME>
6-hydroxy-3-(hydroxymethyl)cyclohexa-2,4-diene-1-carboxylic acid

> <PUBCHEM_IUPAC_CAS_NAME>
6-hydroxy-3-(hydroxymethyl)-1-cyclohexa-2,4-dienecarboxylic acid

> <PUBCHEM_IUPAC_NAME_MARKUP>
6-hydroxy-3-(hydroxymethyl)cyclohexa-2,4-diene-1-carboxylic acid

> <PUBCHEM_IUPAC_NAME>
6-hydroxy-3-(hydroxymethyl)cyclohexa-2,4-diene-1-carboxylic acid

> <PUBCHEM_IUPAC_SYSTEMATIC_NAME>
3-(hydroxymethyl)-6-oxidanyl-cyclohexa-2,4-diene-1-carboxylic acid

> <PUBCHEM_IUPAC_TRADITIONAL_NAME>
6-hydroxy-3-methylol-cyclohexa-2,4-diene-1-carboxylic acid

> <PUBCHEM_IUPAC_INCHI>
InChI=1S/C8H10O4/c9-4-5-1-2-7(10)6(3-5)8(11)12/h1-3,6-7,9-10H,4H2,(H,11,12)

> <PUBCHEM_IUPAC_INCHIKEY>
NLZLKCGAFIRSML-UHFFFAOYSA-N

> <PUBCHEM_XLOGP3_AA>
-0.5

> <PUBCHEM_EXACT_MASS>
170.05790880

> <PUBCHEM_MOLECULAR_FORMULA>
C8H10O4

> <PUBCHEM_MOLECULAR_WEIGHT>
170.16

> <PUBCHEM_OPENEYE_CAN_SMILES>
C1=CC(=CC(C1O)C(=O)O)CO

> <PUBCHEM_OPENEYE_ISO_SMILES>
C1=CC(=CC(C1O)C(=O)O)CO

> <PUBCHEM_CACTVS_TPSA>
77.8

> <PUBCHEM_MONOISOTOPIC_WEIGHT>
170.05790880

> <PUBCHEM_TOTAL_CHARGE>
0

> <PUBCHEM_HEAVY_ATOM_COUNT>
12

> <PUBCHEM_ATOM_DEF_STEREO_COUNT>
0

> <PUBCHEM_ATOM_UDEF_STEREO_COUNT>
2

> <PUBCHEM_BOND_DEF_STEREO_COUNT>
0

> <PUBCHEM_BOND_UDEF_STEREO_COUNT>
0

> <PUBCHEM_ISOTOPIC_ATOM_COUNT>
0

> <PUBCHEM_COMPONENT_COUNT>
1

> <PUBCHEM_CACTVS_TAUTO_COUNT>
-1

> <PUBCHEM_COORDINATE_TYPE>
1
5
255

> <PUBCHEM_BONDANNOTATIONS>
6  1  3
5  11  3

$$$$
