 
  -OEChem-10192103352D

 70 72  0     1  0  0  0  0  0999 V2000
    7.5991   -0.8188    0.0000 O   0  0  0  0  0  0  0  0  0  0  0  0
    8.5991   -1.8188    0.0000 O   0  0  0  0  0  0  0  0  0  0  0  0
    9.8592    0.4413    0.0000 O   0  0  0  0  0  0  0  0  0  0  0  0
    6.8671   -1.8188    0.0000 O   0  0  0  0  0  0  0  0  0  0  0  0
    9.3240    2.0885    0.0000 O   0  0  0  0  0  0  0  0  0  0  0  0
    8.0991    1.7200    0.0000 O   0  0  0  0  0  0  0  0  0  0  0  0
   10.2933   -0.4587    0.0000 O   0  0  0  0  0  0  0  0  0  0  0  0
    8.5991   -3.8188    0.0000 O   0  0  0  0  0  0  0  0  0  0  0  0
   11.7613    1.0593    0.0000 O   0  0  0  0  0  0  0  0  0  0  0  0
    6.8671   -4.8188    0.0000 O   0  0  0  0  0  0  0  0  0  0  0  0
   12.1771    3.0156    0.0000 O   0  0  0  0  0  0  0  0  0  0  0  0
    6.1311    1.4194    0.0000 O   0  0  0  0  0  0  0  0  0  0  0  0
    5.1350   -3.8188    0.0000 O   0  0  0  0  0  0  0  0  0  0  0  0
   10.6908    4.3538    0.0000 O   0  0  0  0  0  0  0  0  0  0  0  0
    4.2690   -2.3188    0.0000 O   0  0  0  0  0  0  0  0  0  0  0  0
    8.9966    4.7140    0.0000 O   0  0  0  0  0  0  0  0  0  0  0  0
    2.5369   -2.3188    0.0000 O   0  0  0  0  0  0  0  0  0  0  0  0
    8.9081    0.1322    0.0000 C   0  0  2  0  0  0  0  0  0  0  0  0
    8.5991   -0.8188    0.0000 C   0  0  1  0  0  0  0  0  0  0  0  0
    8.0991    0.7200    0.0000 C   0  0  1  0  0  0  0  0  0  0  0  0
    7.2901    0.1322    0.0000 C   0  0  1  0  0  0  0  0  0  0  0  0
    7.7331   -2.3188    0.0000 C   0  0  1  0  0  0  0  0  0  0  0  0
   10.0671    1.4194    0.0000 C   0  0  1  0  0  0  0  0  0  0  0  0
    9.5502   -1.1278    0.0000 C   0  0  0  0  0  0  0  0  0  0  0  0
    7.7331   -3.3188    0.0000 C   0  0  1  0  0  0  0  0  0  0  0  0
   11.0182    1.7284    0.0000 C   0  0  1  0  0  0  0  0  0  0  0  0
    6.8671   -3.8188    0.0000 C   0  0  2  0  0  0  0  0  0  0  0  0
   11.2261    2.7066    0.0000 C   0  0  2  0  0  0  0  0  0  0  0  0
    6.3390    0.4413    0.0000 C   0  0  0  0  0  0  0  0  0  0  0  0
    6.0010   -3.3188    0.0000 C   0  0  1  0  0  0  0  0  0  0  0  0
    6.0010   -2.3188    0.0000 C   0  0  1  0  0  0  0  0  0  0  0  0
   10.4829    3.3757    0.0000 C   0  0  1  0  0  0  0  0  0  0  0  0
    9.5319    3.0667    0.0000 C   0  0  1  0  0  0  0  0  0  0  0  0
    5.1350   -1.8188    0.0000 C   0  0  0  0  0  0  0  0  0  0  0  0
    8.7887    3.7358    0.0000 C   0  0  0  0  0  0  0  0  0  0  0  0
    3.4030   -1.8188    0.0000 C   0  0  0  0  0  0  0  0  0  0  0  0
    9.3465   -0.3062    0.0000 H   0  0  0  0  0  0  0  0  0  0  0  0
    7.5467    1.0015    0.0000 H   0  0  0  0  0  0  0  0  0  0  0  0
    6.8517   -0.3062    0.0000 H   0  0  0  0  0  0  0  0  0  0  0  0
    8.2700   -2.6288    0.0000 H   0  0  0  0  0  0  0  0  0  0  0  0
    9.4774    1.2278    0.0000 H   0  0  0  0  0  0  0  0  0  0  0  0
    9.2591   -1.6753    0.0000 H   0  0  0  0  0  0  0  0  0  0  0  0
   10.0387   -1.5096    0.0000 H   0  0  0  0  0  0  0  0  0  0  0  0
    7.7331   -3.9388    0.0000 H   0  0  0  0  0  0  0  0  0  0  0  0
   11.6078    1.9200    0.0000 H   0  0  0  0  0  0  0  0  0  0  0  0
    6.3301   -4.1288    0.0000 H   0  0  0  0  0  0  0  0  0  0  0  0
   11.3550    3.3130    0.0000 H   0  0  0  0  0  0  0  0  0  0  0  0
    5.7194    0.4196    0.0000 H   0  0  0  0  0  0  0  0  0  0  0  0
    6.2528   -0.1727    0.0000 H   0  0  0  0  0  0  0  0  0  0  0  0
    6.0010   -3.9388    0.0000 H   0  0  0  0  0  0  0  0  0  0  0  0
    6.0010   -1.6988    0.0000 H   0  0  0  0  0  0  0  0  0  0  0  0
   11.0726    3.5673    0.0000 H   0  0  0  0  0  0  0  0  0  0  0  0
    8.9422    2.8751    0.0000 H   0  0  0  0  0  0  0  0  0  0  0  0
    7.5622    2.0300    0.0000 H   0  0  0  0  0  0  0  0  0  0  0  0
    5.5335   -1.3439    0.0000 H   0  0  0  0  0  0  0  0  0  0  0  0
    4.7365   -1.3439    0.0000 H   0  0  0  0  0  0  0  0  0  0  0  0
    8.2139    3.9681    0.0000 H   0  0  0  0  0  0  0  0  0  0  0  0
    8.4602    3.2100    0.0000 H   0  0  0  0  0  0  0  0  0  0  0  0
   10.8830   -0.6503    0.0000 H   0  0  0  0  0  0  0  0  0  0  0  0
    8.5991   -4.4388    0.0000 H   0  0  0  0  0  0  0  0  0  0  0  0
   12.3510    1.2509    0.0000 H   0  0  0  0  0  0  0  0  0  0  0  0
    6.3301   -5.1288    0.0000 H   0  0  0  0  0  0  0  0  0  0  0  0
   12.3060    3.6220    0.0000 H   0  0  0  0  0  0  0  0  0  0  0  0
    5.1350   -4.4388    0.0000 H   0  0  0  0  0  0  0  0  0  0  0  0
    5.5415    1.6110    0.0000 H   0  0  0  0  0  0  0  0  0  0  0  0
   11.2805    4.5454    0.0000 H   0  0  0  0  0  0  0  0  0  0  0  0
    8.5359    5.1288    0.0000 H   0  0  0  0  0  0  0  0  0  0  0  0
    3.8015   -1.3439    0.0000 H   0  0  0  0  0  0  0  0  0  0  0  0
    3.0044   -1.3439    0.0000 H   0  0  0  0  0  0  0  0  0  0  0  0
    2.0000   -2.0088    0.0000 H   0  0  0  0  0  0  0  0  0  0  0  0
  1 19  1  0  0  0  0
  1 21  1  0  0  0  0
 19  2  1  6  0  0  0
 22  2  1  6  0  0  0
 18  3  1  6  0  0  0
 23  3  1  1  0  0  0
  4 22  1  0  0  0  0
  4 31  1  0  0  0  0
  5 23  1  0  0  0  0
  5 33  1  0  0  0  0
 20  6  1  1  0  0  0
  6 54  1  0  0  0  0
  7 24  1  0  0  0  0
  7 59  1  0  0  0  0
 25  8  1  6  0  0  0
  8 60  1  0  0  0  0
 26  9  1  1  0  0  0
  9 61  1  0  0  0  0
 27 10  1  1  0  0  0
 10 62  1  0  0  0  0
 28 11  1  6  0  0  0
 11 63  1  0  0  0  0
 12 29  1  0  0  0  0
 12 65  1  0  0  0  0
 30 13  1  6  0  0  0
 13 64  1  0  0  0  0
 32 14  1  1  0  0  0
 14 66  1  0  0  0  0
 15 34  1  0  0  0  0
 15 36  1  0  0  0  0
 16 35  1  0  0  0  0
 16 67  1  0  0  0  0
 17 36  1  0  0  0  0
 17 70  1  0  0  0  0
 18 19  1  0  0  0  0
 18 20  1  0  0  0  0
 18 37  1  0  0  0  0
 19 24  1  0  0  0  0
 20 21  1  0  0  0  0
 20 38  1  0  0  0  0
 21 29  1  6  0  0  0
 21 39  1  0  0  0  0
 22 25  1  0  0  0  0
 22 40  1  0  0  0  0
 23 26  1  0  0  0  0
 23 41  1  0  0  0  0
 24 42  1  0  0  0  0
 24 43  1  0  0  0  0
 25 27  1  0  0  0  0
 25 44  1  0  0  0  0
 26 28  1  0  0  0  0
 26 45  1  0  0  0  0
 27 30  1  0  0  0  0
 27 46  1  0  0  0  0
 28 32  1  0  0  0  0
 28 47  1  0  0  0  0
 29 48  1  0  0  0  0
 29 49  1  0  0  0  0
 30 31  1  0  0  0  0
 30 50  1  0  0  0  0
 31 34  1  1  0  0  0
 31 51  1  0  0  0  0
 32 33  1  0  0  0  0
 32 52  1  0  0  0  0
 33 35  1  6  0  0  0
 33 53  1  0  0  0  0
 34 55  1  0  0  0  0
 34 56  1  0  0  0  0
 35 57  1  0  0  0  0
 35 58  1  0  0  0  0
 36 68  1  0  0  0  0
 36 69  1  0  0  0  0
M  END
> <PUBCHEM_COMPOUND_CID>
57034926

> <PUBCHEM_COMPOUND_CANONICALIZED>
1

> <PUBCHEM_CACTVS_COMPLEXITY>
686

> <PUBCHEM_CACTVS_HBOND_ACCEPTOR>
17

> <PUBCHEM_CACTVS_HBOND_DONOR>
11

> <PUBCHEM_CACTVS_ROTATABLE_BOND>
10

> <PUBCHEM_CACTVS_SUBSKEYS>
AAADcfB4PgAAAAAAAAAAAAAAAAAAASAAAAAkSAAAAAAAAAAAAAAAGgAACAAACBSwgAMACAAABgAAAAAAAAAAAAAAAAAAAAAAAAAREAIAAAAiQAAFAAAHAAHAYAwAAAAAAAAAAAAAAAAAAAAAAAAAAAAAAA==

> <PUBCHEM_IUPAC_OPENEYE_NAME>
(2R,3R,4S,5S,6R)-2-[(2S,3S,4R,5R)-4-hydroxy-2,5-bis(hydroxymethyl)-2-[(2R,3R,4S,5S,6R)-3,4,5-trihydroxy-6-(hydroxymethoxymethyl)tetrahydropyran-2-yl]oxy-tetrahydrofuran-3-yl]oxy-6-(hydroxymethyl)tetrahydropyran-3,4,5-triol

> <PUBCHEM_IUPAC_CAS_NAME>
(2R,3R,4S,5S,6R)-2-[[(2S,3S,4R,5R)-4-hydroxy-2,5-bis(hydroxymethyl)-2-[[(2R,3R,4S,5S,6R)-3,4,5-trihydroxy-6-(hydroxymethoxymethyl)-2-oxanyl]oxy]-3-oxolanyl]oxy]-6-(hydroxymethyl)oxane-3,4,5-triol

> <PUBCHEM_IUPAC_NAME_MARKUP>
(2<I>R</I>,3<I>R</I>,4<I>S</I>,5<I>S</I>,6<I>R</I>)-2-[(2<I>S</I>,3<I>S</I>,4<I>R</I>,5<I>R</I>)-4-hydroxy-2,5-bis(hydroxymethyl)-2-[(2<I>R</I>,3<I>R</I>,4<I>S</I>,5<I>S</I>,6<I>R</I>)-3,4,5-trihydroxy-6-(hydroxymethoxymethyl)oxan-2-yl]oxyoxolan-3-yl]oxy-6-(hydroxymethyl)oxane-3,4,5-triol

> <PUBCHEM_IUPAC_NAME>
(2R,3R,4S,5S,6R)-2-[(2S,3S,4R,5R)-4-hydroxy-2,5-bis(hydroxymethyl)-2-[(2R,3R,4S,5S,6R)-3,4,5-trihydroxy-6-(hydroxymethoxymethyl)oxan-2-yl]oxyoxolan-3-yl]oxy-6-(hydroxymethyl)oxane-3,4,5-triol

> <PUBCHEM_IUPAC_SYSTEMATIC_NAME>
(2R,3R,4S,5S,6R)-2-[(2S,3S,4R,5R)-2,5-bis(hydroxymethyl)-2-[(2R,3R,4S,5S,6R)-6-(hydroxymethyloxymethyl)-3,4,5-tris(oxidanyl)oxan-2-yl]oxy-4-oxidanyl-oxolan-3-yl]oxy-6-(hydroxymethyl)oxane-3,4,5-triol

> <PUBCHEM_IUPAC_TRADITIONAL_NAME>
(2R,3R,4S,5S,6R)-2-[(2S,3S,4R,5R)-4-hydroxy-2,5-dimethylol-2-[(2R,3R,4S,5S,6R)-3,4,5-trihydroxy-6-(methyloloxymethyl)tetrahydropyran-2-yl]oxy-tetrahydrofuran-3-yl]oxy-6-methylol-tetrahydropyran-3,4,5-triol

> <PUBCHEM_IUPAC_INCHI>
InChI=1S/C19H34O17/c20-1-6-9(24)12(27)14(29)17(32-6)34-16-11(26)7(2-21)35-19(16,4-22)36-18-15(30)13(28)10(25)8(33-18)3-31-5-23/h6-18,20-30H,1-5H2/t6-,7-,8-,9-,10-,11-,12+,13+,14-,15-,16+,17-,18-,19+/m1/s1

> <PUBCHEM_IUPAC_INCHIKEY>
FKJQVJDNAQSLHO-CDXULNSXSA-N

> <PUBCHEM_XLOGP3>
-6.4

> <PUBCHEM_EXACT_MASS>
534.17959961

> <PUBCHEM_MOLECULAR_FORMULA>
C19H34O17

> <PUBCHEM_MOLECULAR_WEIGHT>
534.5

> <PUBCHEM_OPENEYE_CAN_SMILES>
C(C1C(C(C(C(O1)OC2C(C(OC2(CO)OC3C(C(C(C(O3)COCO)O)O)O)CO)O)O)O)O)O

> <PUBCHEM_OPENEYE_ISO_SMILES>
C([C@@H]1[C@H]([C@@H]([C@H]([C@H](O1)O[C@H]2[C@@H]([C@H](O[C@@]2(CO)O[C@@H]3[C@@H]([C@H]([C@@H]([C@H](O3)COCO)O)O)O)CO)O)O)O)O)O

> <PUBCHEM_CACTVS_TPSA>
278

> <PUBCHEM_MONOISOTOPIC_WEIGHT>
534.17959961

> <PUBCHEM_TOTAL_CHARGE>
0

> <PUBCHEM_HEAVY_ATOM_COUNT>
36

> <PUBCHEM_ATOM_DEF_STEREO_COUNT>
14

> <PUBCHEM_ATOM_UDEF_STEREO_COUNT>
0

> <PUBCHEM_BOND_DEF_STEREO_COUNT>
0

> <PUBCHEM_BOND_UDEF_STEREO_COUNT>
0

> <PUBCHEM_ISOTOPIC_ATOM_COUNT>
0

> <PUBCHEM_COMPONENT_COUNT>
1

> <PUBCHEM_CACTVS_TAUTO_COUNT>
-1

> <PUBCHEM_COORDINATE_TYPE>
1
5
255

> <PUBCHEM_BONDANNOTATIONS>
27  10  5
28  11  6
30  13  6
32  14  5
19  2  6
22  2  6
21  29  6
18  3  6
23  3  5
31  34  5
33  35  6
20  6  5
25  8  6
26  9  5

$$$$
