 
  -OEChem-10192104152D

 32 33  0     1  0  0  0  0  0999 V2000
    5.4641   -2.2500    0.0000 O   0  0  0  0  0  0  0  0  0  0  0  0
    7.2764   -0.4453    0.0000 O   0  0  0  0  0  0  0  0  0  0  0  0
    5.4641    0.7500    0.0000 O   0  0  0  0  0  0  0  0  0  0  0  0
    3.7320   -0.2500    0.0000 O   0  0  0  0  0  0  0  0  0  0  0  0
    8.8600   -1.2500    0.0000 O   0  0  0  0  0  0  0  0  0  0  0  0
    3.7320    0.7500    0.0000 O   0  0  0  0  0  0  0  0  0  0  0  0
    2.8660   -1.7500    0.0000 O   0  0  0  0  0  0  0  0  0  0  0  0
    6.3301   -0.7500    0.0000 C   0  0  1  0  0  0  0  0  0  0  0  0
    6.3301   -1.7500    0.0000 C   0  0  3  0  0  0  0  0  0  0  0  0
    5.4641   -0.2500    0.0000 C   0  0  2  0  0  0  0  0  0  0  0  0
    4.5981   -0.7500    0.0000 C   0  0  1  0  0  0  0  0  0  0  0  0
    7.2764   -2.0547    0.0000 C   0  0  0  0  0  0  0  0  0  0  0  0
    4.5981   -1.7500    0.0000 C   0  0  0  0  0  0  0  0  0  0  0  0
    7.8600   -1.2500    0.0000 C   0  0  0  0  0  0  0  0  0  0  0  0
    4.5981    1.2500    0.0000 C   0  0  0  0  0  0  0  0  0  0  0  0
    2.8660   -0.7500    0.0000 C   0  0  0  0  0  0  0  0  0  0  0  0
    4.5981    2.2500    0.0000 C   0  0  0  0  0  0  0  0  0  0  0  0
    2.0000   -0.2500    0.0000 C   0  0  0  0  0  0  0  0  0  0  0  0
    6.4201    0.0952    0.0000 H   0  0  0  0  0  0  0  0  0  0  0  0
    6.3957   -2.3665    0.0000 H   0  0  0  0  0  0  0  0  0  0  0  0
    6.0010    0.0600    0.0000 H   0  0  0  0  0  0  0  0  0  0  0  0
    4.5981   -0.1300    0.0000 H   0  0  0  0  0  0  0  0  0  0  0  0
    7.0253   -2.6216    0.0000 H   0  0  0  0  0  0  0  0  0  0  0  0
    7.8137   -2.3640    0.0000 H   0  0  0  0  0  0  0  0  0  0  0  0
    3.9875   -1.6423    0.0000 H   0  0  0  0  0  0  0  0  0  0  0  0
    4.3860   -2.3326    0.0000 H   0  0  0  0  0  0  0  0  0  0  0  0
    5.2181    2.2500    0.0000 H   0  0  0  0  0  0  0  0  0  0  0  0
    4.5981    2.8700    0.0000 H   0  0  0  0  0  0  0  0  0  0  0  0
    3.9781    2.2500    0.0000 H   0  0  0  0  0  0  0  0  0  0  0  0
    2.3100    0.2869    0.0000 H   0  0  0  0  0  0  0  0  0  0  0  0
    1.4631    0.0600    0.0000 H   0  0  0  0  0  0  0  0  0  0  0  0
    1.6900   -0.7869    0.0000 H   0  0  0  0  0  0  0  0  0  0  0  0
  1  9  1  0  0  0  0
  1 13  1  0  0  0  0
  2  8  1  0  0  0  0
  2 14  1  0  0  0  0
 10  3  1  6  0  0  0
  3 15  1  0  0  0  0
 11  4  1  1  0  0  0
  4 16  1  0  0  0  0
  5 14  2  0  0  0  0
  6 15  2  0  0  0  0
  7 16  2  0  0  0  0
  8  9  1  0  0  0  0
  8 10  1  0  0  0  0
  8 19  1  6  0  0  0
  9 12  1  0  0  0  0
  9 20  1  0  0  0  0
 10 11  1  0  0  0  0
 10 21  1  0  0  0  0
 11 13  1  0  0  0  0
 11 22  1  0  0  0  0
 12 14  1  0  0  0  0
 12 23  1  0  0  0  0
 12 24  1  0  0  0  0
 13 25  1  0  0  0  0
 13 26  1  0  0  0  0
 15 17  1  0  0  0  0
 16 18  1  0  0  0  0
 17 27  1  0  0  0  0
 17 28  1  0  0  0  0
 17 29  1  0  0  0  0
 18 30  1  0  0  0  0
 18 31  1  0  0  0  0
 18 32  1  0  0  0  0
M  END
> <PUBCHEM_COMPOUND_CID>
139475922

> <PUBCHEM_COMPOUND_CANONICALIZED>
1

> <PUBCHEM_CACTVS_COMPLEXITY>
378

> <PUBCHEM_CACTVS_HBOND_ACCEPTOR>
7

> <PUBCHEM_CACTVS_HBOND_DONOR>
0

> <PUBCHEM_CACTVS_ROTATABLE_BOND>
4

> <PUBCHEM_CACTVS_SUBSKEYS>
AAADccBwOAAAAAAAAAAAAAAAAAAAASAAAAAkAAAAAAAAAEgAAAAAGgAAAAAACBSggAICCAAABAAIAACQCAAAAAAAAAAAAAEAAAABABYAAAACAAAFIAACAAHK7CzAAAAAAAAAAAAAAAAAAAAAAAAAAAAAAA==

> <PUBCHEM_IUPAC_OPENEYE_NAME>
[(6R,7S,7aS)-7-acetoxy-2-oxo-3,3a,5,6,7,7a-hexahydrofuro[3,2-b]pyran-6-yl] acetate

> <PUBCHEM_IUPAC_CAS_NAME>
acetic acid [(6R,7S,7aS)-7-acetyloxy-2-oxo-3,3a,5,6,7,7a-hexahydrofuro[3,2-b]pyran-6-yl] ester

> <PUBCHEM_IUPAC_NAME_MARKUP>
[(6<I>R</I>,7<I>S</I>,7<I>a</I><I>S</I>)-7-acetyloxy-2-oxo-3,3<I>a</I>,5,6,7,7<I>a</I>-hexahydrofuro[3,2-b]pyran-6-yl] acetate

> <PUBCHEM_IUPAC_NAME>
[(6R,7S,7aS)-7-acetyloxy-2-oxo-3,3a,5,6,7,7a-hexahydrofuro[3,2-b]pyran-6-yl] acetate

> <PUBCHEM_IUPAC_SYSTEMATIC_NAME>
[(6R,7S,7aS)-7-acetyloxy-2-oxidanylidene-3,3a,5,6,7,7a-hexahydrofuro[3,2-b]pyran-6-yl] ethanoate

> <PUBCHEM_IUPAC_TRADITIONAL_NAME>
acetic acid [(6R,7S,7aS)-7-acetoxy-2-keto-3,3a,5,6,7,7a-hexahydrofuro[3,2-b]pyran-6-yl] ester

> <PUBCHEM_IUPAC_INCHI>
InChI=1S/C11H14O7/c1-5(12)16-8-4-15-7-3-9(14)18-10(7)11(8)17-6(2)13/h7-8,10-11H,3-4H2,1-2H3/t7?,8-,10+,11+/m1/s1

> <PUBCHEM_IUPAC_INCHIKEY>
COOSSPGZEFETRV-NGJJGHSNSA-N

> <PUBCHEM_XLOGP3_AA>
-0.5

> <PUBCHEM_EXACT_MASS>
258.07395278

> <PUBCHEM_MOLECULAR_FORMULA>
C11H14O7

> <PUBCHEM_MOLECULAR_WEIGHT>
258.22

> <PUBCHEM_OPENEYE_CAN_SMILES>
CC(=O)OC1COC2CC(=O)OC2C1OC(=O)C

> <PUBCHEM_OPENEYE_ISO_SMILES>
CC(=O)O[C@@H]1COC2CC(=O)O[C@@H]2[C@H]1OC(=O)C

> <PUBCHEM_CACTVS_TPSA>
88.1

> <PUBCHEM_MONOISOTOPIC_WEIGHT>
258.07395278

> <PUBCHEM_TOTAL_CHARGE>
0

> <PUBCHEM_HEAVY_ATOM_COUNT>
18

> <PUBCHEM_ATOM_DEF_STEREO_COUNT>
3

> <PUBCHEM_ATOM_UDEF_STEREO_COUNT>
1

> <PUBCHEM_BOND_DEF_STEREO_COUNT>
0

> <PUBCHEM_BOND_UDEF_STEREO_COUNT>
0

> <PUBCHEM_ISOTOPIC_ATOM_COUNT>
0

> <PUBCHEM_COMPONENT_COUNT>
1

> <PUBCHEM_CACTVS_TAUTO_COUNT>
-1

> <PUBCHEM_COORDINATE_TYPE>
1
5
255

> <PUBCHEM_BONDANNOTATIONS>
10  3  6
11  4  5
8  19  6
9  12  3

$$$$
