 
  -OEChem-10192103542D

 28 28  0     0  0  0  0  0  0999 V2000
    6.8671    2.8450    0.0000 O   0  0  0  0  0  0  0  0  0  0  0  0
    2.5369   -1.6550    0.0000 O   0  0  0  0  0  0  0  0  0  0  0  0
    7.7331    1.3450    0.0000 O   0  0  0  0  0  0  0  0  0  0  0  0
    3.4030   -0.1550    0.0000 O   0  0  0  0  0  0  0  0  0  0  0  0
    6.0010    0.3450    0.0000 C   0  0  0  0  0  0  0  0  0  0  0  0
    5.1350   -0.1550    0.0000 C   0  0  0  0  0  0  0  0  0  0  0  0
    5.1350   -1.1550    0.0000 C   0  0  0  0  0  0  0  0  0  0  0  0
    6.0010    1.3450    0.0000 C   0  0  0  0  0  0  0  0  0  0  0  0
    4.2690   -1.6550    0.0000 C   0  0  0  0  0  0  0  0  0  0  0  0
    6.0010   -1.6550    0.0000 C   0  0  0  0  0  0  0  0  0  0  0  0
    4.2690   -2.6550    0.0000 C   0  0  0  0  0  0  0  0  0  0  0  0
    6.0010   -2.6550    0.0000 C   0  0  0  0  0  0  0  0  0  0  0  0
    4.2690    0.3450    0.0000 C   0  0  0  0  0  0  0  0  0  0  0  0
    5.1350   -3.1550    0.0000 C   0  0  0  0  0  0  0  0  0  0  0  0
    6.8671    1.8450    0.0000 C   0  0  0  0  0  0  0  0  0  0  0  0
    3.4030   -1.1550    0.0000 C   0  0  0  0  0  0  0  0  0  0  0  0
    6.2131   -0.2376    0.0000 H   0  0  0  0  0  0  0  0  0  0  0  0
    6.6116    0.4527    0.0000 H   0  0  0  0  0  0  0  0  0  0  0  0
    5.7890    1.9276    0.0000 H   0  0  0  0  0  0  0  0  0  0  0  0
    5.3905    1.2373    0.0000 H   0  0  0  0  0  0  0  0  0  0  0  0
    6.5380   -1.3450    0.0000 H   0  0  0  0  0  0  0  0  0  0  0  0
    3.7320   -2.9650    0.0000 H   0  0  0  0  0  0  0  0  0  0  0  0
    6.5380   -2.9650    0.0000 H   0  0  0  0  0  0  0  0  0  0  0  0
    4.2690    0.9650    0.0000 H   0  0  0  0  0  0  0  0  0  0  0  0
    3.7320    0.0350    0.0000 H   0  0  0  0  0  0  0  0  0  0  0  0
    5.1350   -3.7750    0.0000 H   0  0  0  0  0  0  0  0  0  0  0  0
    7.4040    3.1550    0.0000 H   0  0  0  0  0  0  0  0  0  0  0  0
    2.0000   -1.3450    0.0000 H   0  0  0  0  0  0  0  0  0  0  0  0
  1 15  1  0  0  0  0
  1 27  1  0  0  0  0
  2 16  1  0  0  0  0
  2 28  1  0  0  0  0
  3 15  2  0  0  0  0
  4 16  2  0  0  0  0
  5  6  1  0  0  0  0
  5  8  1  0  0  0  0
  5 17  1  0  0  0  0
  5 18  1  0  0  0  0
  6  7  1  0  0  0  0
  6 13  2  0  0  0  0
  7  9  1  0  0  0  0
  7 10  2  0  0  0  0
  8 15  1  0  0  0  0
  8 19  1  0  0  0  0
  8 20  1  0  0  0  0
  9 11  2  0  0  0  0
  9 16  1  0  0  0  0
 10 12  1  0  0  0  0
 10 21  1  0  0  0  0
 11 14  1  0  0  0  0
 11 22  1  0  0  0  0
 12 14  2  0  0  0  0
 12 23  1  0  0  0  0
 13 24  1  0  0  0  0
 13 25  1  0  0  0  0
 14 26  1  0  0  0  0
M  END
> <PUBCHEM_COMPOUND_CID>
90703702

> <PUBCHEM_COMPOUND_CANONICALIZED>
1

> <PUBCHEM_CACTVS_COMPLEXITY>
295

> <PUBCHEM_CACTVS_HBOND_ACCEPTOR>
4

> <PUBCHEM_CACTVS_HBOND_DONOR>
2

> <PUBCHEM_CACTVS_ROTATABLE_BOND>
5

> <PUBCHEM_CACTVS_SUBSKEYS>
AAADccBwOAAAAAAAAAAAAAAAAAAAAAAAAAAwAAAAAAAAAAABAAAAGgAACAAADACAmAAwCIAAAgCIAiDSCAACAAAkAAAIiAEACMgIJjKAFRCAcQAkwAEImYeIyPCOgAAAAAAQAAAAAAAAACAAAAAAAAAAAA==

> <PUBCHEM_IUPAC_OPENEYE_NAME>
2-(3-carboxy-1-methylene-propyl)benzoic acid

> <PUBCHEM_IUPAC_CAS_NAME>
2-(4-carboxybut-1-en-2-yl)benzoic acid

> <PUBCHEM_IUPAC_NAME_MARKUP>
2-(4-carboxybut-1-en-2-yl)benzoic acid

> <PUBCHEM_IUPAC_NAME>
2-(4-carboxybut-1-en-2-yl)benzoic acid

> <PUBCHEM_IUPAC_SYSTEMATIC_NAME>
2-(5-oxidanyl-5-oxidanylidene-pent-1-en-2-yl)benzoic acid

> <PUBCHEM_IUPAC_TRADITIONAL_NAME>
2-[1-(2-carboxyethyl)vinyl]benzoic acid

> <PUBCHEM_IUPAC_INCHI>
InChI=1S/C12H12O4/c1-8(6-7-11(13)14)9-4-2-3-5-10(9)12(15)16/h2-5H,1,6-7H2,(H,13,14)(H,15,16)

> <PUBCHEM_IUPAC_INCHIKEY>
JRWAPHTZBJFICO-UHFFFAOYSA-N

> <PUBCHEM_XLOGP3_AA>
2.2

> <PUBCHEM_EXACT_MASS>
220.07355886

> <PUBCHEM_MOLECULAR_FORMULA>
C12H12O4

> <PUBCHEM_MOLECULAR_WEIGHT>
220.22

> <PUBCHEM_OPENEYE_CAN_SMILES>
C=C(CCC(=O)O)C1=CC=CC=C1C(=O)O

> <PUBCHEM_OPENEYE_ISO_SMILES>
C=C(CCC(=O)O)C1=CC=CC=C1C(=O)O

> <PUBCHEM_CACTVS_TPSA>
74.6

> <PUBCHEM_MONOISOTOPIC_WEIGHT>
220.07355886

> <PUBCHEM_TOTAL_CHARGE>
0

> <PUBCHEM_HEAVY_ATOM_COUNT>
16

> <PUBCHEM_ATOM_DEF_STEREO_COUNT>
0

> <PUBCHEM_ATOM_UDEF_STEREO_COUNT>
0

> <PUBCHEM_BOND_DEF_STEREO_COUNT>
0

> <PUBCHEM_BOND_UDEF_STEREO_COUNT>
0

> <PUBCHEM_ISOTOPIC_ATOM_COUNT>
0

> <PUBCHEM_COMPONENT_COUNT>
1

> <PUBCHEM_CACTVS_TAUTO_COUNT>
-1

> <PUBCHEM_COORDINATE_TYPE>
1
5
255

> <PUBCHEM_BONDANNOTATIONS>
10  12  8
11  14  8
12  14  8
7  10  8
7  9  8
9  11  8

$$$$
