 
  -OEChem-10192104372D

 66 69  0     1  0  0  0  0  0999 V2000
   10.2629    0.6545    0.0000 O   0  0  0  0  0  0  0  0  0  0  0  0
    6.8671   -1.3455    0.0000 O   0  0  0  0  0  0  0  0  0  0  0  0
    9.4893   -0.7366    0.0000 O   0  0  0  0  0  0  0  0  0  0  0  0
    6.0010    0.1545    0.0000 O   0  0  0  0  0  0  0  0  0  0  0  0
    5.1350   -1.3455    0.0000 O   0  0  0  0  0  0  0  0  0  0  0  0
   11.7629    1.5205    0.0000 O   0  0  0  0  0  0  0  0  0  0  0  0
    9.2629    2.3865    0.0000 O   0  0  0  0  0  0  0  0  0  0  0  0
    6.8671   -3.3455    0.0000 O   0  0  0  0  0  0  0  0  0  0  0  0
    5.1350   -4.3455    0.0000 O   0  0  0  0  0  0  0  0  0  0  0  0
   10.2629    4.1186    0.0000 O   0  0  0  0  0  0  0  0  0  0  0  0
    3.4030   -3.3455    0.0000 O   0  0  0  0  0  0  0  0  0  0  0  0
   12.2629    4.1186    0.0000 O   0  0  0  0  0  0  0  0  0  0  0  0
    2.5369   -1.8455    0.0000 O   0  0  0  0  0  0  0  0  0  0  0  0
   13.7629    1.5205    0.0000 O   0  0  0  0  0  0  0  0  0  0  0  0
   13.7629    3.2526    0.0000 O   0  0  0  0  0  0  0  0  0  0  0  0
    8.6793   -0.1503    0.0000 C   0  0  2  0  0  0  0  0  0  0  0  0
    7.7331    0.1545    0.0000 C   0  0  2  0  0  0  0  0  0  0  0  0
    9.2629    0.6545    0.0000 C   0  0  1  0  0  0  0  0  0  0  0  0
    7.7331    1.1545    0.0000 C   0  0  0  0  0  0  0  0  0  0  0  0
    6.8671   -0.3455    0.0000 C   0  0  2  0  0  0  0  0  0  0  0  0
    8.6793    1.4592    0.0000 C   0  0  0  0  0  0  0  0  0  0  0  0
    8.3719   -1.1018    0.0000 C   0  0  0  0  0  0  0  0  0  0  0  0
   10.7629    1.5205    0.0000 C   0  0  2  0  0  0  0  0  0  0  0  0
    6.0010   -1.8455    0.0000 C   0  0  2  0  0  0  0  0  0  0  0  0
    6.8671    1.6545    0.0000 C   0  0  0  0  0  0  0  0  0  0  0  0
   10.2629    2.3865    0.0000 C   0  0  1  0  0  0  0  0  0  0  0  0
    6.0010   -2.8455    0.0000 C   0  0  1  0  0  0  0  0  0  0  0  0
    5.1350   -3.3455    0.0000 C   0  0  2  0  0  0  0  0  0  0  0  0
   10.7629    3.2526    0.0000 C   0  0  2  0  0  0  0  0  0  0  0  0
    4.2690   -2.8455    0.0000 C   0  0  1  0  0  0  0  0  0  0  0  0
    4.2690   -1.8455    0.0000 C   0  0  1  0  0  0  0  0  0  0  0  0
   11.7629    3.2526    0.0000 C   0  0  1  0  0  0  0  0  0  0  0  0
    6.0010    1.1545    0.0000 C   0  0  0  0  0  0  0  0  0  0  0  0
   12.2629    2.3865    0.0000 C   0  0  1  0  0  0  0  0  0  0  0  0
    3.4030   -1.3455    0.0000 C   0  0  0  0  0  0  0  0  0  0  0  0
   13.2629    2.3865    0.0000 C   0  0  0  0  0  0  0  0  0  0  0  0
    7.8230   -0.6907    0.0000 H   0  0  0  0  0  0  0  0  0  0  0  0
    9.5446    0.1022    0.0000 H   0  0  0  0  0  0  0  0  0  0  0  0
    7.4040   -0.6555    0.0000 H   0  0  0  0  0  0  0  0  0  0  0  0
    8.8719    2.0485    0.0000 H   0  0  0  0  0  0  0  0  0  0  0  0
    7.7820   -0.9113    0.0000 H   0  0  0  0  0  0  0  0  0  0  0  0
    8.1814   -1.6918    0.0000 H   0  0  0  0  0  0  0  0  0  0  0  0
    8.9619   -1.2924    0.0000 H   0  0  0  0  0  0  0  0  0  0  0  0
   10.1429    1.5205    0.0000 H   0  0  0  0  0  0  0  0  0  0  0  0
    6.0010   -1.2255    0.0000 H   0  0  0  0  0  0  0  0  0  0  0  0
    6.8671    2.2745    0.0000 H   0  0  0  0  0  0  0  0  0  0  0  0
    9.9529    2.9235    0.0000 H   0  0  0  0  0  0  0  0  0  0  0  0
    6.0010   -3.4655    0.0000 H   0  0  0  0  0  0  0  0  0  0  0  0
    9.4256   -1.3534    0.0000 H   0  0  0  0  0  0  0  0  0  0  0  0
    4.5981   -3.6555    0.0000 H   0  0  0  0  0  0  0  0  0  0  0  0
   11.0729    3.7895    0.0000 H   0  0  0  0  0  0  0  0  0  0  0  0
    4.2690   -3.4655    0.0000 H   0  0  0  0  0  0  0  0  0  0  0  0
    4.2690   -1.2255    0.0000 H   0  0  0  0  0  0  0  0  0  0  0  0
   12.3829    3.2526    0.0000 H   0  0  0  0  0  0  0  0  0  0  0  0
    5.4641    1.4645    0.0000 H   0  0  0  0  0  0  0  0  0  0  0  0
   12.5729    1.8496    0.0000 H   0  0  0  0  0  0  0  0  0  0  0  0
    3.8015   -0.8706    0.0000 H   0  0  0  0  0  0  0  0  0  0  0  0
    3.0044   -0.8706    0.0000 H   0  0  0  0  0  0  0  0  0  0  0  0
    8.9529    2.9235    0.0000 H   0  0  0  0  0  0  0  0  0  0  0  0
    6.8671   -3.9655    0.0000 H   0  0  0  0  0  0  0  0  0  0  0  0
    4.5981   -4.6555    0.0000 H   0  0  0  0  0  0  0  0  0  0  0  0
    9.6429    4.1186    0.0000 H   0  0  0  0  0  0  0  0  0  0  0  0
    3.4030   -3.9655    0.0000 H   0  0  0  0  0  0  0  0  0  0  0  0
   11.9529    4.6555    0.0000 H   0  0  0  0  0  0  0  0  0  0  0  0
    2.0000   -1.5355    0.0000 H   0  0  0  0  0  0  0  0  0  0  0  0
   14.3829    1.5205    0.0000 H   0  0  0  0  0  0  0  0  0  0  0  0
 18  1  1  1  0  0  0
 23  1  1  1  0  0  0
 20  2  1  6  0  0  0
 24  2  1  1  0  0  0
 16  3  1  6  0  0  0
  3 49  1  0  0  0  0
  4 20  1  0  0  0  0
  4 33  1  0  0  0  0
  5 24  1  0  0  0  0
  5 31  1  0  0  0  0
  6 23  1  0  0  0  0
  6 34  1  0  0  0  0
 26  7  1  6  0  0  0
  7 59  1  0  0  0  0
 27  8  1  6  0  0  0
  8 60  1  0  0  0  0
 28  9  1  1  0  0  0
  9 61  1  0  0  0  0
 29 10  1  1  0  0  0
 10 62  1  0  0  0  0
 30 11  1  6  0  0  0
 11 63  1  0  0  0  0
 32 12  1  6  0  0  0
 12 64  1  0  0  0  0
 13 35  1  0  0  0  0
 13 65  1  0  0  0  0
 14 36  1  0  0  0  0
 14 66  1  0  0  0  0
 15 36  2  0  0  0  0
 16 17  1  0  0  0  0
 16 18  1  0  0  0  0
 16 22  1  0  0  0  0
 17 19  1  0  0  0  0
 17 20  1  0  0  0  0
 17 37  1  6  0  0  0
 18 21  1  0  0  0  0
 18 38  1  0  0  0  0
 19 21  2  0  0  0  0
 19 25  1  0  0  0  0
 20 39  1  0  0  0  0
 21 40  1  0  0  0  0
 22 41  1  0  0  0  0
 22 42  1  0  0  0  0
 22 43  1  0  0  0  0
 23 26  1  0  0  0  0
 23 44  1  0  0  0  0
 24 27  1  0  0  0  0
 24 45  1  0  0  0  0
 25 33  2  0  0  0  0
 25 46  1  0  0  0  0
 26 29  1  0  0  0  0
 26 47  1  0  0  0  0
 27 28  1  0  0  0  0
 27 48  1  0  0  0  0
 28 30  1  0  0  0  0
 28 50  1  0  0  0  0
 29 32  1  0  0  0  0
 29 51  1  0  0  0  0
 30 31  1  0  0  0  0
 30 52  1  0  0  0  0
 31 35  1  1  0  0  0
 31 53  1  0  0  0  0
 32 34  1  0  0  0  0
 32 54  1  0  0  0  0
 33 55  1  0  0  0  0
 34 36  1  1  0  0  0
 34 56  1  0  0  0  0
 35 57  1  0  0  0  0
 35 58  1  0  0  0  0
M  END
> <PUBCHEM_COMPOUND_CID>
132594969

> <PUBCHEM_COMPOUND_CANONICALIZED>
1

> <PUBCHEM_CACTVS_COMPLEXITY>
879

> <PUBCHEM_CACTVS_HBOND_ACCEPTOR>
15

> <PUBCHEM_CACTVS_HBOND_DONOR>
9

> <PUBCHEM_CACTVS_ROTATABLE_BOND>
6

> <PUBCHEM_CACTVS_SUBSKEYS>
AAADceB4PAAAAAAAAAAAAAAAAAAAAQAAAAAkSIAAAAAAAEAAAAAAGgAACAAADVSwgAMCCAAABgCIAiDSCAIACAAgIAAICAFAAAgZFBYAIQQiUAAF4AAPoAPKbAxOgAAAAAAAAAAAAAAAAAAAAAAAAAAAAA==

> <PUBCHEM_IUPAC_OPENEYE_NAME>
(2S,3S,4S,5R,6R)-6-[[(1S,6R,7R,7aS)-7-hydroxy-7-methyl-1-[(2S,3R,4S,5S,6R)-3,4,5-trihydroxy-6-(hydroxymethyl)tetrahydropyran-2-yl]oxy-6,7a-dihydro-1H-cyclopenta[c]pyran-6-yl]oxy]-3,4,5-trihydroxy-tetrahydropyran-2-carboxylic acid

> <PUBCHEM_IUPAC_CAS_NAME>
(2S,3S,4S,5R,6R)-6-[[(1S,6R,7R,7aS)-7-hydroxy-7-methyl-1-[[(2S,3R,4S,5S,6R)-3,4,5-trihydroxy-6-(hydroxymethyl)-2-oxanyl]oxy]-6,7a-dihydro-1H-cyclopenta[c]pyran-6-yl]oxy]-3,4,5-trihydroxy-2-oxanecarboxylic acid

> <PUBCHEM_IUPAC_NAME_MARKUP>
(2<I>S</I>,3<I>S</I>,4<I>S</I>,5<I>R</I>,6<I>R</I>)-6-[[(1<I>S</I>,6<I>R</I>,7<I>R</I>,7<I>a</I><I>S</I>)-7-hydroxy-7-methyl-1-[(2<I>S</I>,3<I>R</I>,4<I>S</I>,5<I>S</I>,6<I>R</I>)-3,4,5-trihydroxy-6-(hydroxymethyl)oxan-2-yl]oxy-6,7<I>a</I>-dihydro-1<I>H</I>-cyclopenta[c]pyran-6-yl]oxy]-3,4,5-trihydroxyoxane-2-carboxylic acid

> <PUBCHEM_IUPAC_NAME>
(2S,3S,4S,5R,6R)-6-[[(1S,6R,7R,7aS)-7-hydroxy-7-methyl-1-[(2S,3R,4S,5S,6R)-3,4,5-trihydroxy-6-(hydroxymethyl)oxan-2-yl]oxy-6,7a-dihydro-1H-cyclopenta[c]pyran-6-yl]oxy]-3,4,5-trihydroxyoxane-2-carboxylic acid

> <PUBCHEM_IUPAC_SYSTEMATIC_NAME>
(2S,3S,4S,5R,6R)-6-[[(1S,6R,7R,7aS)-1-[(2S,3R,4S,5S,6R)-6-(hydroxymethyl)-3,4,5-tris(oxidanyl)oxan-2-yl]oxy-7-methyl-7-oxidanyl-6,7a-dihydro-1H-cyclopenta[c]pyran-6-yl]oxy]-3,4,5-tris(oxidanyl)oxane-2-carboxylic acid

> <PUBCHEM_IUPAC_TRADITIONAL_NAME>
(2S,3S,4S,5R,6R)-6-[[(1S,6R,7R,7aS)-7-hydroxy-7-methyl-1-[(2S,3R,4S,5S,6R)-3,4,5-trihydroxy-6-methylol-tetrahydropyran-2-yl]oxy-6,7a-dihydro-1H-cyclopenta[c]pyran-6-yl]oxy]-3,4,5-trihydroxy-tetrahydropyran-2-carboxylic acid

> <PUBCHEM_IUPAC_INCHI>
InChI=1S/C21H30O15/c1-21(31)8(34-20-15(28)12(25)13(26)16(35-20)17(29)30)4-6-2-3-32-18(9(6)21)36-19-14(27)11(24)10(23)7(5-22)33-19/h2-4,7-16,18-20,22-28,31H,5H2,1H3,(H,29,30)/t7-,8-,9-,10-,11+,12+,13+,14-,15-,16+,18+,19+,20-,21+/m1/s1

> <PUBCHEM_IUPAC_INCHIKEY>
PZCSUROUYNFYSZ-FBHMOZQGSA-N

> <PUBCHEM_XLOGP3_AA>
-4

> <PUBCHEM_EXACT_MASS>
522.15847025

> <PUBCHEM_MOLECULAR_FORMULA>
C21H30O15

> <PUBCHEM_MOLECULAR_WEIGHT>
522.5

> <PUBCHEM_OPENEYE_CAN_SMILES>
CC1(C(C=C2C1C(OC=C2)OC3C(C(C(C(O3)CO)O)O)O)OC4C(C(C(C(O4)C(=O)O)O)O)O)O

> <PUBCHEM_OPENEYE_ISO_SMILES>
C[C@@]1([C@@H](C=C2[C@@H]1[C@@H](OC=C2)O[C@H]3[C@@H]([C@H]([C@@H]([C@H](O3)CO)O)O)O)O[C@H]4[C@@H]([C@H]([C@@H]([C@H](O4)C(=O)O)O)O)O)O

> <PUBCHEM_CACTVS_TPSA>
245

> <PUBCHEM_MONOISOTOPIC_WEIGHT>
522.15847025

> <PUBCHEM_TOTAL_CHARGE>
0

> <PUBCHEM_HEAVY_ATOM_COUNT>
36

> <PUBCHEM_ATOM_DEF_STEREO_COUNT>
14

> <PUBCHEM_ATOM_UDEF_STEREO_COUNT>
0

> <PUBCHEM_BOND_DEF_STEREO_COUNT>
0

> <PUBCHEM_BOND_UDEF_STEREO_COUNT>
0

> <PUBCHEM_ISOTOPIC_ATOM_COUNT>
0

> <PUBCHEM_COMPONENT_COUNT>
1

> <PUBCHEM_CACTVS_TAUTO_COUNT>
-1

> <PUBCHEM_COORDINATE_TYPE>
1
5
255

> <PUBCHEM_BONDANNOTATIONS>
18  1  5
23  1  5
29  10  5
30  11  6
32  12  6
17  37  6
20  2  6
24  2  5
16  3  6
31  35  5
34  36  5
26  7  6
27  8  6
28  9  5

$$$$
