 
  -OEChem-10192103452D

 77 81  0     1  0  0  0  0  0999 V2000
    2.5357   -2.9187    0.0000 O   0  0  0  0  0  0  0  0  0  0  0  0
   11.4608    0.1678    0.0000 O   0  0  0  0  0  0  0  0  0  0  0  0
   10.6064   -1.3388    0.0000 O   0  0  0  0  0  0  0  0  0  0  0  0
    8.6626    3.3742    0.0000 O   0  0  0  0  0  0  0  0  0  0  0  0
    7.3824    2.2076    0.0000 O   0  0  0  0  0  0  0  0  0  0  0  0
    7.0628   -1.3664    0.0000 C   0  0  1  0  0  0  0  0  0  0  0  0
    7.9288   -0.8664    0.0000 C   0  0  1  0  0  0  0  0  0  0  0  0
    6.1968   -0.8664    0.0000 C   0  0  3  0  0  0  0  0  0  0  0  0
    7.9288    0.1336    0.0000 C   0  0  3  0  0  0  0  0  0  0  0  0
    5.2868   -1.3732    0.0000 C   0  0  2  0  0  0  0  0  0  0  0  0
    8.8228    0.6683    0.0000 C   0  0  3  0  0  0  0  0  0  0  0  0
    5.2787   -2.4148    0.0000 C   0  0  3  0  0  0  0  0  0  0  0  0
    9.7288    0.1544    0.0000 C   0  0  1  0  0  0  0  0  0  0  0  0
    7.0789   -2.4079    0.0000 C   0  0  0  0  0  0  0  0  0  0  0  0
    6.1968    0.1336    0.0000 C   0  0  0  0  0  0  0  0  0  0  0  0
    8.8228   -1.4010    0.0000 C   0  0  0  0  0  0  0  0  0  0  0  0
    7.0628    0.6336    0.0000 C   0  0  0  0  0  0  0  0  0  0  0  0
    6.1808   -2.9356    0.0000 C   0  0  0  0  0  0  0  0  0  0  0  0
    9.7288   -0.8872    0.0000 C   0  0  0  0  0  0  0  0  0  0  0  0
    4.3433   -2.9645    0.0000 C   0  0  0  0  0  0  0  0  0  0  0  0
    4.3599   -0.8091    0.0000 C   0  0  0  0  0  0  0  0  0  0  0  0
    9.0329    1.6822    0.0000 C   0  0  1  0  0  0  0  0  0  0  0  0
    7.7056   -2.1324    0.0000 C   0  0  0  0  0  0  0  0  0  0  0  0
    8.2709   -1.8060    0.0000 C   0  0  0  0  0  0  0  0  0  0  0  0
   10.4911    0.8552    0.0000 C   0  0  0  0  0  0  0  0  0  0  0  0
    5.2945   -0.3732    0.0000 C   0  0  0  0  0  0  0  0  0  0  0  0
   10.0619    1.7975    0.0000 C   0  0  0  0  0  0  0  0  0  0  0  0
    3.4037   -2.4220    0.0000 C   0  0  2  0  0  0  0  0  0  0  0  0
    3.4120   -1.3371    0.0000 C   0  0  0  0  0  0  0  0  0  0  0  0
   10.5987   -0.3389    0.0000 C   0  0  0  0  0  0  0  0  0  0  0  0
    3.8467   -3.8325    0.0000 C   0  0  0  0  0  0  0  0  0  0  0  0
    4.8466   -3.8286    0.0000 C   0  0  0  0  0  0  0  0  0  0  0  0
    8.3593    2.4213    0.0000 C   0  0  0  0  0  0  0  0  0  0  0  0
    6.7337   -0.5564    0.0000 H   0  0  0  0  0  0  0  0  0  0  0  0
    7.9240    0.7536    0.0000 H   0  0  0  0  0  0  0  0  0  0  0  0
    8.3175    1.0276    0.0000 H   0  0  0  0  0  0  0  0  0  0  0  0
    5.2811   -3.0348    0.0000 H   0  0  0  0  0  0  0  0  0  0  0  0
    7.2969   -2.9883    0.0000 H   0  0  0  0  0  0  0  0  0  0  0  0
    7.6880   -2.2924    0.0000 H   0  0  0  0  0  0  0  0  0  0  0  0
    5.9847    0.7162    0.0000 H   0  0  0  0  0  0  0  0  0  0  0  0
    5.5862    0.0260    0.0000 H   0  0  0  0  0  0  0  0  0  0  0  0
    8.4182   -1.8708    0.0000 H   0  0  0  0  0  0  0  0  0  0  0  0
    9.2164   -1.8800    0.0000 H   0  0  0  0  0  0  0  0  0  0  0  0
    7.4613    1.1086    0.0000 H   0  0  0  0  0  0  0  0  0  0  0  0
    6.6643    1.1086    0.0000 H   0  0  0  0  0  0  0  0  0  0  0  0
    5.7835   -3.4116    0.0000 H   0  0  0  0  0  0  0  0  0  0  0  0
    6.5818   -3.4085    0.0000 H   0  0  0  0  0  0  0  0  0  0  0  0
    9.9379   -1.4709    0.0000 H   0  0  0  0  0  0  0  0  0  0  0  0
   10.3397   -0.7811    0.0000 H   0  0  0  0  0  0  0  0  0  0  0  0
    4.7681   -0.3425    0.0000 H   0  0  0  0  0  0  0  0  0  0  0  0
    3.9700   -0.3271    0.0000 H   0  0  0  0  0  0  0  0  0  0  0  0
    9.2513    2.2624    0.0000 H   0  0  0  0  0  0  0  0  0  0  0  0
    7.2306   -2.5309    0.0000 H   0  0  0  0  0  0  0  0  0  0  0  0
    8.1041   -2.6074    0.0000 H   0  0  0  0  0  0  0  0  0  0  0  0
    8.1805   -1.7339    0.0000 H   0  0  0  0  0  0  0  0  0  0  0  0
    7.6884   -2.0181    0.0000 H   0  0  0  0  0  0  0  0  0  0  0  0
    8.4830   -2.3886    0.0000 H   0  0  0  0  0  0  0  0  0  0  0  0
    8.8535   -1.5939    0.0000 H   0  0  0  0  0  0  0  0  0  0  0  0
   10.8604    0.3572    0.0000 H   0  0  0  0  0  0  0  0  0  0  0  0
   11.0252    1.1701    0.0000 H   0  0  0  0  0  0  0  0  0  0  0  0
    5.9145   -0.3780    0.0000 H   0  0  0  0  0  0  0  0  0  0  0  0
    5.2993    0.2467    0.0000 H   0  0  0  0  0  0  0  0  0  0  0  0
    4.6745   -0.3685    0.0000 H   0  0  0  0  0  0  0  0  0  0  0  0
   10.6500    1.9938    0.0000 H   0  0  0  0  0  0  0  0  0  0  0  0
    9.9285    2.4030    0.0000 H   0  0  0  0  0  0  0  0  0  0  0  0
    3.4025   -3.0420    0.0000 H   0  0  0  0  0  0  0  0  0  0  0  0
    3.2075   -0.7518    0.0000 H   0  0  0  0  0  0  0  0  0  0  0  0
    2.8004   -1.4385    0.0000 H   0  0  0  0  0  0  0  0  0  0  0  0
    3.3085   -3.5246    0.0000 H   0  0  0  0  0  0  0  0  0  0  0  0
    3.5387   -4.3706    0.0000 H   0  0  0  0  0  0  0  0  0  0  0  0
    4.3848   -4.1404    0.0000 H   0  0  0  0  0  0  0  0  0  0  0  0
    4.3109   -4.1407    0.0000 H   0  0  0  0  0  0  0  0  0  0  0  0
    5.1587   -4.3644    0.0000 H   0  0  0  0  0  0  0  0  0  0  0  0
    5.3824   -3.5166    0.0000 H   0  0  0  0  0  0  0  0  0  0  0  0
    2.0000   -2.6066    0.0000 H   0  0  0  0  0  0  0  0  0  0  0  0
   12.0001   -0.1381    0.0000 H   0  0  0  0  0  0  0  0  0  0  0  0
    8.2450    3.8325    0.0000 H   0  0  0  0  0  0  0  0  0  0  0  0
 28  1  1  1  0  0  0
  1 75  1  0  0  0  0
  2 30  1  0  0  0  0
  2 76  1  0  0  0  0
  3 30  2  0  0  0  0
  4 33  1  0  0  0  0
  4 77  1  0  0  0  0
  5 33  2  0  0  0  0
  6  7  1  0  0  0  0
  6  8  1  0  0  0  0
  6 14  1  0  0  0  0
  6 23  1  1  0  0  0
  7  9  1  0  0  0  0
  7 16  1  0  0  0  0
  7 24  1  6  0  0  0
  8 10  1  0  0  0  0
  8 15  1  0  0  0  0
  8 34  1  0  0  0  0
  9 11  1  0  0  0  0
  9 17  1  0  0  0  0
  9 35  1  0  0  0  0
 10 12  1  0  0  0  0
 10 21  1  0  0  0  0
 10 26  1  1  0  0  0
 11 13  1  0  0  0  0
 11 22  1  0  0  0  0
 11 36  1  0  0  0  0
 12 18  1  0  0  0  0
 12 20  1  0  0  0  0
 12 37  1  0  0  0  0
 13 19  1  0  0  0  0
 13 25  1  0  0  0  0
 13 30  1  1  0  0  0
 14 18  1  0  0  0  0
 14 38  1  0  0  0  0
 14 39  1  0  0  0  0
 15 17  1  0  0  0  0
 15 40  1  0  0  0  0
 15 41  1  0  0  0  0
 16 19  1  0  0  0  0
 16 42  1  0  0  0  0
 16 43  1  0  0  0  0
 17 44  1  0  0  0  0
 17 45  1  0  0  0  0
 18 46  1  0  0  0  0
 18 47  1  0  0  0  0
 19 48  1  0  0  0  0
 19 49  1  0  0  0  0
 20 28  1  0  0  0  0
 20 31  1  0  0  0  0
 20 32  1  0  0  0  0
 21 29  1  0  0  0  0
 21 50  1  0  0  0  0
 21 51  1  0  0  0  0
 22 27  1  0  0  0  0
 22 33  1  0  0  0  0
 22 52  1  0  0  0  0
 23 53  1  0  0  0  0
 23 54  1  0  0  0  0
 23 55  1  0  0  0  0
 24 56  1  0  0  0  0
 24 57  1  0  0  0  0
 24 58  1  0  0  0  0
 25 27  1  0  0  0  0
 25 59  1  0  0  0  0
 25 60  1  0  0  0  0
 26 61  1  0  0  0  0
 26 62  1  0  0  0  0
 26 63  1  0  0  0  0
 27 64  1  0  0  0  0
 27 65  1  0  0  0  0
 28 29  1  0  0  0  0
 28 66  1  0  0  0  0
 29 67  1  0  0  0  0
 29 68  1  0  0  0  0
 31 69  1  0  0  0  0
 31 70  1  0  0  0  0
 31 71  1  0  0  0  0
 32 72  1  0  0  0  0
 32 73  1  0  0  0  0
 32 74  1  0  0  0  0
M  END
> <PUBCHEM_COMPOUND_CID>
90153907

> <PUBCHEM_COMPOUND_CANONICALIZED>
1

> <PUBCHEM_CACTVS_COMPLEXITY>
866

> <PUBCHEM_CACTVS_HBOND_ACCEPTOR>
5

> <PUBCHEM_CACTVS_HBOND_DONOR>
3

> <PUBCHEM_CACTVS_ROTATABLE_BOND>
2

> <PUBCHEM_CACTVS_SUBSKEYS>
AAADcfB4OAAAAAAAAAAAAAAAAAAAAYAAAAAwYMGAAAAAAGDAAAAAGgAACAAADxSggAICCAAAAgAIAACQCAAAAAAAAAAAAAEAAAAAEBIAAAAAQAAEAAAAAAGI7vCPgAAAAAAAAADAAAYAADAAAQAACAAAAA==

> <PUBCHEM_IUPAC_OPENEYE_NAME>
(1R,3aS,5aR,5bR,9S,11aR)-9-hydroxy-5a,5b,8,8,11a-pentamethyl-1,2,3,4,5,6,7,7a,9,10,11,11b,12,13,13a,13b-hexadecahydrocyclopenta[a]chrysene-1,3a-dicarboxylic acid

> <PUBCHEM_IUPAC_CAS_NAME>
(1R,3aS,5aR,5bR,9S,11aR)-9-hydroxy-5a,5b,8,8,11a-pentamethyl-1,2,3,4,5,6,7,7a,9,10,11,11b,12,13,13a,13b-hexadecahydrocyclopenta[a]chrysene-1,3a-dicarboxylic acid

> <PUBCHEM_IUPAC_NAME_MARKUP>
(1<I>R</I>,3<I>a</I><I>S</I>,5<I>a</I><I>R</I>,5<I>b</I><I>R</I>,9<I>S</I>,11<I>a</I><I>R</I>)-9-hydroxy-5<I>a</I>,5<I>b</I>,8,8,11<I>a</I>-pentamethyl-1,2,3,4,5,6,7,7<I>a</I>,9,10,11,11<I>b</I>,12,13,13<I>a</I>,13<I>b</I>-hexadecahydrocyclopenta[a]chrysene-1,3<I>a</I>-dicarboxylic acid

> <PUBCHEM_IUPAC_NAME>
(1R,3aS,5aR,5bR,9S,11aR)-9-hydroxy-5a,5b,8,8,11a-pentamethyl-1,2,3,4,5,6,7,7a,9,10,11,11b,12,13,13a,13b-hexadecahydrocyclopenta[a]chrysene-1,3a-dicarboxylic acid

> <PUBCHEM_IUPAC_SYSTEMATIC_NAME>
(1R,3aS,5aR,5bR,9S,11aR)-5a,5b,8,8,11a-pentamethyl-9-oxidanyl-1,2,3,4,5,6,7,7a,9,10,11,11b,12,13,13a,13b-hexadecahydrocyclopenta[a]chrysene-1,3a-dicarboxylic acid

> <PUBCHEM_IUPAC_TRADITIONAL_NAME>
(1R,3aS,5aR,5bR,9S,11aR)-9-hydroxy-5a,5b,8,8,11a-pentamethyl-1,2,3,4,5,6,7,7a,9,10,11,11b,12,13,13a,13b-hexadecahydrocyclopenta[a]chrysene-1,3a-dicarboxylic acid

> <PUBCHEM_IUPAC_INCHI>
InChI=1S/C28H44O5/c1-24(2)18-9-12-27(5)19(25(18,3)11-10-20(24)29)7-6-17-21-16(22(30)31)8-13-28(21,23(32)33)15-14-26(17,27)4/h16-21,29H,6-15H2,1-5H3,(H,30,31)(H,32,33)/t16-,17?,18?,19?,20+,21?,25+,26-,27-,28+/m1/s1

> <PUBCHEM_IUPAC_INCHIKEY>
WQCIAMRJQDYPHR-AOQRXUMNSA-N

> <PUBCHEM_XLOGP3_AA>
6

> <PUBCHEM_EXACT_MASS>
460.31887450

> <PUBCHEM_MOLECULAR_FORMULA>
C28H44O5

> <PUBCHEM_MOLECULAR_WEIGHT>
460.6

> <PUBCHEM_OPENEYE_CAN_SMILES>
CC1(C2CCC3(C(C2(CCC1O)C)CCC4C3(CCC5(C4C(CC5)C(=O)O)C(=O)O)C)C)C

> <PUBCHEM_OPENEYE_ISO_SMILES>
C[C@@]12CC[C@]3(CC[C@H](C3C1CCC4[C@]2(CCC5[C@@]4(CC[C@@H](C5(C)C)O)C)C)C(=O)O)C(=O)O

> <PUBCHEM_CACTVS_TPSA>
94.8

> <PUBCHEM_MONOISOTOPIC_WEIGHT>
460.31887450

> <PUBCHEM_TOTAL_CHARGE>
0

> <PUBCHEM_HEAVY_ATOM_COUNT>
33

> <PUBCHEM_ATOM_DEF_STEREO_COUNT>
6

> <PUBCHEM_ATOM_UDEF_STEREO_COUNT>
4

> <PUBCHEM_BOND_DEF_STEREO_COUNT>
0

> <PUBCHEM_BOND_UDEF_STEREO_COUNT>
0

> <PUBCHEM_ISOTOPIC_ATOM_COUNT>
0

> <PUBCHEM_COMPONENT_COUNT>
1

> <PUBCHEM_CACTVS_TAUTO_COUNT>
-1

> <PUBCHEM_COORDINATE_TYPE>
1
5
255

> <PUBCHEM_BONDANNOTATIONS>
28  1  5
10  26  5
11  22  3
12  18  3
13  30  5
6  23  5
7  24  6
8  15  3
9  17  3

$$$$
