 
  -OEChem-10192104122D

 21 21  0     0  0  0  0  0  0999 V2000
    2.5369    0.7500    0.0000 O   0  0  0  0  0  0  0  0  0  0  0  0
    6.0010    0.7500    0.0000 O   0  0  0  0  0  0  0  0  0  0  0  0
    2.5369   -2.2500    0.0000 O   0  0  0  0  0  0  0  0  0  0  0  0
    5.1350    2.2500    0.0000 O   0  0  0  0  0  0  0  0  0  0  0  0
    4.2690   -1.2500    0.0000 C   0  0  0  0  0  0  0  0  0  0  0  0
    3.4030   -0.7500    0.0000 C   0  0  0  0  0  0  0  0  0  0  0  0
    3.4030    0.2500    0.0000 C   0  0  0  0  0  0  0  0  0  0  0  0
    4.2690    0.7500    0.0000 C   0  0  0  0  0  0  0  0  0  0  0  0
    5.1350   -0.7500    0.0000 C   0  0  0  0  0  0  0  0  0  0  0  0
    5.1350    0.2500    0.0000 C   0  0  0  0  0  0  0  0  0  0  0  0
    4.2690   -2.2500    0.0000 C   0  0  0  0  0  0  0  0  0  0  0  0
    2.5369   -1.2500    0.0000 C   0  0  0  0  0  0  0  0  0  0  0  0
    4.2690    1.7500    0.0000 C   0  0  0  0  0  0  0  0  0  0  0  0
    5.6720   -1.0600    0.0000 H   0  0  0  0  0  0  0  0  0  0  0  0
    3.6490   -2.2500    0.0000 H   0  0  0  0  0  0  0  0  0  0  0  0
    4.2690   -2.8700    0.0000 H   0  0  0  0  0  0  0  0  0  0  0  0
    4.8890   -2.2500    0.0000 H   0  0  0  0  0  0  0  0  0  0  0  0
    2.0000   -0.9400    0.0000 H   0  0  0  0  0  0  0  0  0  0  0  0
    3.7320    2.0600    0.0000 H   0  0  0  0  0  0  0  0  0  0  0  0
    2.0000    0.4400    0.0000 H   0  0  0  0  0  0  0  0  0  0  0  0
    6.5380    0.4400    0.0000 H   0  0  0  0  0  0  0  0  0  0  0  0
  1  7  1  0  0  0  0
  1 20  1  0  0  0  0
  2 10  1  0  0  0  0
  2 21  1  0  0  0  0
  3 12  2  0  0  0  0
  4 13  2  0  0  0  0
  5  6  1  0  0  0  0
  5  9  2  0  0  0  0
  5 11  1  0  0  0  0
  6  7  2  0  0  0  0
  6 12  1  0  0  0  0
  7  8  1  0  0  0  0
  8 10  2  0  0  0  0
  8 13  1  0  0  0  0
  9 10  1  0  0  0  0
  9 14  1  0  0  0  0
 11 15  1  0  0  0  0
 11 16  1  0  0  0  0
 11 17  1  0  0  0  0
 12 18  1  0  0  0  0
 13 19  1  0  0  0  0
M  END
> <PUBCHEM_COMPOUND_CID>
601986

> <PUBCHEM_COMPOUND_CANONICALIZED>
1

> <PUBCHEM_CACTVS_COMPLEXITY>
204

> <PUBCHEM_CACTVS_HBOND_ACCEPTOR>
4

> <PUBCHEM_CACTVS_HBOND_DONOR>
2

> <PUBCHEM_CACTVS_ROTATABLE_BOND>
2

> <PUBCHEM_CACTVS_SUBSKEYS>
AAADccBwOAAAAAAAAAAAAAAAAAAAAAAAAAAwAAAAAAAAAAABAAAAGgAACAAADASgmAIyBoAAAgCIAihSgAACAAAkIAAAiAEGCMgIJzaCFRKAcUAl4BUImQeI7vTO4AADCAAYAADAAAYQADAAAAAAAAAAAA==

> <PUBCHEM_IUPAC_OPENEYE_NAME>
2,4-dihydroxy-6-methyl-benzene-1,3-dicarbaldehyde

> <PUBCHEM_IUPAC_CAS_NAME>
2,4-dihydroxy-6-methylbenzene-1,3-dicarboxaldehyde

> <PUBCHEM_IUPAC_NAME_MARKUP>
2,4-dihydroxy-6-methylbenzene-1,3-dicarbaldehyde

> <PUBCHEM_IUPAC_NAME>
2,4-dihydroxy-6-methylbenzene-1,3-dicarbaldehyde

> <PUBCHEM_IUPAC_SYSTEMATIC_NAME>
4-methyl-2,6-bis(oxidanyl)benzene-1,3-dicarbaldehyde

> <PUBCHEM_IUPAC_TRADITIONAL_NAME>
2,4-dihydroxy-6-methyl-isophthalaldehyde

> <PUBCHEM_IUPAC_INCHI>
InChI=1S/C9H8O4/c1-5-2-8(12)7(4-11)9(13)6(5)3-10/h2-4,12-13H,1H3

> <PUBCHEM_IUPAC_INCHIKEY>
URPZJXUEQPBEPM-UHFFFAOYSA-N

> <PUBCHEM_XLOGP3_AA>
1.6

> <PUBCHEM_EXACT_MASS>
180.04225873

> <PUBCHEM_MOLECULAR_FORMULA>
C9H8O4

> <PUBCHEM_MOLECULAR_WEIGHT>
180.16

> <PUBCHEM_OPENEYE_CAN_SMILES>
CC1=CC(=C(C(=C1C=O)O)C=O)O

> <PUBCHEM_OPENEYE_ISO_SMILES>
CC1=CC(=C(C(=C1C=O)O)C=O)O

> <PUBCHEM_CACTVS_TPSA>
74.6

> <PUBCHEM_MONOISOTOPIC_WEIGHT>
180.04225873

> <PUBCHEM_TOTAL_CHARGE>
0

> <PUBCHEM_HEAVY_ATOM_COUNT>
13

> <PUBCHEM_ATOM_DEF_STEREO_COUNT>
0

> <PUBCHEM_ATOM_UDEF_STEREO_COUNT>
0

> <PUBCHEM_BOND_DEF_STEREO_COUNT>
0

> <PUBCHEM_BOND_UDEF_STEREO_COUNT>
0

> <PUBCHEM_ISOTOPIC_ATOM_COUNT>
0

> <PUBCHEM_COMPONENT_COUNT>
1

> <PUBCHEM_CACTVS_TAUTO_COUNT>
36

> <PUBCHEM_COORDINATE_TYPE>
1
5
255

> <PUBCHEM_BONDANNOTATIONS>
5  6  8
5  9  8
6  7  8
7  8  8
8  10  8
9  10  8

$$$$
