 
  -OEChem-10192103532D

 25 24  0     1  0  0  0  0  0999 V2000
    8.0622    0.0000    0.0000 O   0  0  0  0  0  0  0  0  0  0  0  0
    7.1962    1.5000    0.0000 O   0  0  0  0  0  0  0  0  0  0  0  0
    2.0000    0.5000    0.0000 O   0  0  0  0  0  0  0  0  0  0  0  0
    6.3301    0.0000    0.0000 C   0  0  3  0  0  0  0  0  0  0  0  0
    5.4641    0.5000    0.0000 C   0  0  0  0  0  0  0  0  0  0  0  0
    6.3301   -1.0000    0.0000 C   0  0  0  0  0  0  0  0  0  0  0  0
    4.5981   -0.0000    0.0000 C   0  0  0  0  0  0  0  0  0  0  0  0
    3.7320    0.5000    0.0000 C   0  0  0  0  0  0  0  0  0  0  0  0
    7.1962    0.5000    0.0000 C   0  0  0  0  0  0  0  0  0  0  0  0
    5.4641   -1.5000    0.0000 C   0  0  0  0  0  0  0  0  0  0  0  0
    2.8660   -0.0000    0.0000 C   0  0  0  0  0  0  0  0  0  0  0  0
    6.8671   -0.3100    0.0000 H   0  0  0  0  0  0  0  0  0  0  0  0
    5.8626    0.9749    0.0000 H   0  0  0  0  0  0  0  0  0  0  0  0
    5.0656    0.9749    0.0000 H   0  0  0  0  0  0  0  0  0  0  0  0
    6.5422   -1.5826    0.0000 H   0  0  0  0  0  0  0  0  0  0  0  0
    6.9407   -0.8923    0.0000 H   0  0  0  0  0  0  0  0  0  0  0  0
    4.1996   -0.4749    0.0000 H   0  0  0  0  0  0  0  0  0  0  0  0
    4.9966   -0.4749    0.0000 H   0  0  0  0  0  0  0  0  0  0  0  0
    4.1306    0.9749    0.0000 H   0  0  0  0  0  0  0  0  0  0  0  0
    3.3335    0.9749    0.0000 H   0  0  0  0  0  0  0  0  0  0  0  0
    5.1541   -0.9631    0.0000 H   0  0  0  0  0  0  0  0  0  0  0  0
    4.9272   -1.8100    0.0000 H   0  0  0  0  0  0  0  0  0  0  0  0
    5.7741   -2.0369    0.0000 H   0  0  0  0  0  0  0  0  0  0  0  0
    2.8660   -0.6200    0.0000 H   0  0  0  0  0  0  0  0  0  0  0  0
    8.5991    0.3100    0.0000 H   0  0  0  0  0  0  0  0  0  0  0  0
  1  9  1  0  0  0  0
  1 25  1  0  0  0  0
  2  9  2  0  0  0  0
  3 11  2  0  0  0  0
  4  5  1  0  0  0  0
  4  6  1  0  0  0  0
  4  9  1  0  0  0  0
  4 12  1  0  0  0  0
  5  7  1  0  0  0  0
  5 13  1  0  0  0  0
  5 14  1  0  0  0  0
  6 10  1  0  0  0  0
  6 15  1  0  0  0  0
  6 16  1  0  0  0  0
  7  8  1  0  0  0  0
  7 17  1  0  0  0  0
  7 18  1  0  0  0  0
  8 11  1  0  0  0  0
  8 19  1  0  0  0  0
  8 20  1  0  0  0  0
 10 21  1  0  0  0  0
 10 22  1  0  0  0  0
 10 23  1  0  0  0  0
 11 24  1  0  0  0  0
M  END
> <PUBCHEM_COMPOUND_CID>
53793784

> <PUBCHEM_COMPOUND_CANONICALIZED>
1

> <PUBCHEM_CACTVS_COMPLEXITY>
131

> <PUBCHEM_CACTVS_HBOND_ACCEPTOR>
3

> <PUBCHEM_CACTVS_HBOND_DONOR>
1

> <PUBCHEM_CACTVS_ROTATABLE_BOND>
6

> <PUBCHEM_CACTVS_SUBSKEYS>
AAADccBwMAAAAAAAAAAAAAAAAAAAAAAAAAAAAAAAAAAAAAAAAAAAGgAACAAADQCggAICCAAAAgAIAAiQiAAAAAAAAAAAAAEAAAAAABIAAAAAQAAEAAAAAAGIyACOAAAAAAAAAAAAAAAAAAAAAAAAAAAAAA==

> <PUBCHEM_IUPAC_OPENEYE_NAME>
2-ethyl-6-oxo-hexanoic acid

> <PUBCHEM_IUPAC_CAS_NAME>
2-ethyl-6-oxohexanoic acid

> <PUBCHEM_IUPAC_NAME_MARKUP>
2-ethyl-6-oxohexanoic acid

> <PUBCHEM_IUPAC_NAME>
2-ethyl-6-oxohexanoic acid

> <PUBCHEM_IUPAC_SYSTEMATIC_NAME>
2-ethyl-6-oxidanylidene-hexanoic acid

> <PUBCHEM_IUPAC_TRADITIONAL_NAME>
2-ethyl-6-keto-hexanoic acid

> <PUBCHEM_IUPAC_INCHI>
InChI=1S/C8H14O3/c1-2-7(8(10)11)5-3-4-6-9/h6-7H,2-5H2,1H3,(H,10,11)

> <PUBCHEM_IUPAC_INCHIKEY>
WVVSINSUNXDETP-UHFFFAOYSA-N

> <PUBCHEM_XLOGP3_AA>
0.8

> <PUBCHEM_EXACT_MASS>
158.094294304

> <PUBCHEM_MOLECULAR_FORMULA>
C8H14O3

> <PUBCHEM_MOLECULAR_WEIGHT>
158.19

> <PUBCHEM_OPENEYE_CAN_SMILES>
CCC(CCCC=O)C(=O)O

> <PUBCHEM_OPENEYE_ISO_SMILES>
CCC(CCCC=O)C(=O)O

> <PUBCHEM_CACTVS_TPSA>
54.4

> <PUBCHEM_MONOISOTOPIC_WEIGHT>
158.094294304

> <PUBCHEM_TOTAL_CHARGE>
0

> <PUBCHEM_HEAVY_ATOM_COUNT>
11

> <PUBCHEM_ATOM_DEF_STEREO_COUNT>
0

> <PUBCHEM_ATOM_UDEF_STEREO_COUNT>
1

> <PUBCHEM_BOND_DEF_STEREO_COUNT>
0

> <PUBCHEM_BOND_UDEF_STEREO_COUNT>
0

> <PUBCHEM_ISOTOPIC_ATOM_COUNT>
0

> <PUBCHEM_COMPONENT_COUNT>
1

> <PUBCHEM_CACTVS_TAUTO_COUNT>
-1

> <PUBCHEM_COORDINATE_TYPE>
1
5
255

> <PUBCHEM_BONDANNOTATIONS>
4  6  3

$$$$
