 
  -OEChem-10192104002D

 73 74  0     1  0  0  0  0  0999 V2000
    8.9282    0.5756    0.0000 O   0  0  0  0  0  0  0  0  0  0  0  0
    7.9282    1.5756    0.0000 O   0  0  0  0  0  0  0  0  0  0  0  0
    7.1962    0.5756    0.0000 O   0  0  0  0  0  0  0  0  0  0  0  0
    8.9282   -1.4244    0.0000 O   0  0  0  0  0  0  0  0  0  0  0  0
   10.1883    2.8356    0.0000 O   0  0  0  0  0  0  0  0  0  0  0  0
    5.4641   -1.4244    0.0000 O   0  0  0  0  0  0  0  0  0  0  0  0
    8.4282    4.1144    0.0000 O   0  0  0  0  0  0  0  0  0  0  0  0
    7.1962   -2.4244    0.0000 O   0  0  0  0  0  0  0  0  0  0  0  0
   10.0872    0.2884    0.0000 O   0  0  0  0  0  0  0  0  0  0  0  0
    6.4602    3.8138    0.0000 O   0  0  0  0  0  0  0  0  0  0  0  0
    5.4641    1.5756    0.0000 O   0  0  0  0  0  0  0  0  0  0  0  0
    8.0622   -2.9244    0.0000 O   0  0  0  0  0  0  0  0  0  0  0  0
    4.5981    0.0756    0.0000 O   0  0  0  0  0  0  0  0  0  0  0  0
    8.9282    1.5756    0.0000 C   0  0  2  0  0  0  0  0  0  0  0  0
    9.2372    2.5266    0.0000 C   0  0  2  0  0  0  0  0  0  0  0  0
    8.4282    3.1144    0.0000 C   0  0  1  0  0  0  0  0  0  0  0  0
    8.0622    0.0756    0.0000 C   0  0  1  0  0  0  0  0  0  0  0  0
    8.0622   -0.9244    0.0000 C   0  0  1  0  0  0  0  0  0  0  0  0
    7.6192    2.5266    0.0000 C   0  0  1  0  0  0  0  0  0  0  0  0
    7.1962   -1.4244    0.0000 C   0  0  2  0  0  0  0  0  0  0  0  0
    6.3301   -0.9244    0.0000 C   0  0  1  0  0  0  0  0  0  0  0  0
    6.3301    0.0756    0.0000 C   0  0  1  0  0  0  0  0  0  0  0  0
    9.8793    1.2666    0.0000 C   0  0  0  0  0  0  0  0  0  0  0  0
    6.6681    2.8356    0.0000 C   0  0  0  0  0  0  0  0  0  0  0  0
    5.4641    0.5756    0.0000 C   0  0  0  0  0  0  0  0  0  0  0  0
    8.9282   -2.4244    0.0000 C   0  0  0  0  0  0  0  0  0  0  0  0
    4.5981   -0.9244    0.0000 C   0  0  0  0  0  0  0  0  0  0  0  0
    9.7942   -2.9244    0.0000 C   0  0  3  0  0  0  0  0  0  0  0  0
    3.7320   -1.4244    0.0000 C   0  0  3  0  0  0  0  0  0  0  0  0
    9.7942   -3.9244    0.0000 C   0  0  0  0  0  0  0  0  0  0  0  0
    2.8660   -0.9244    0.0000 C   0  0  0  0  0  0  0  0  0  0  0  0
   10.6603   -2.4244    0.0000 C   0  0  0  0  0  0  0  0  0  0  0  0
    3.7320   -2.4244    0.0000 C   0  0  0  0  0  0  0  0  0  0  0  0
   10.6603   -4.4244    0.0000 C   0  0  0  0  0  0  0  0  0  0  0  0
    2.0000   -1.4244    0.0000 C   0  0  0  0  0  0  0  0  0  0  0  0
    9.3342    3.1390    0.0000 H   0  0  0  0  0  0  0  0  0  0  0  0
    8.9806    3.3959    0.0000 H   0  0  0  0  0  0  0  0  0  0  0  0
    8.0622    0.6956    0.0000 H   0  0  0  0  0  0  0  0  0  0  0  0
    8.0622   -1.5444    0.0000 H   0  0  0  0  0  0  0  0  0  0  0  0
    7.1808    2.0882    0.0000 H   0  0  0  0  0  0  0  0  0  0  0  0
    6.6592   -1.7344    0.0000 H   0  0  0  0  0  0  0  0  0  0  0  0
    6.3301   -1.5444    0.0000 H   0  0  0  0  0  0  0  0  0  0  0  0
    6.3301    0.6956    0.0000 H   0  0  0  0  0  0  0  0  0  0  0  0
   10.4989    1.2882    0.0000 H   0  0  0  0  0  0  0  0  0  0  0  0
    9.9656    1.8805    0.0000 H   0  0  0  0  0  0  0  0  0  0  0  0
    6.0485    2.8140    0.0000 H   0  0  0  0  0  0  0  0  0  0  0  0
    6.5818    2.2217    0.0000 H   0  0  0  0  0  0  0  0  0  0  0  0
    4.8535    0.6832    0.0000 H   0  0  0  0  0  0  0  0  0  0  0  0
    5.2520   -0.0070    0.0000 H   0  0  0  0  0  0  0  0  0  0  0  0
   10.3172    3.4421    0.0000 H   0  0  0  0  0  0  0  0  0  0  0  0
    8.9651    4.4244    0.0000 H   0  0  0  0  0  0  0  0  0  0  0  0
    6.6592   -2.7344    0.0000 H   0  0  0  0  0  0  0  0  0  0  0  0
   10.6768    0.0968    0.0000 H   0  0  0  0  0  0  0  0  0  0  0  0
    9.7942   -2.3044    0.0000 H   0  0  0  0  0  0  0  0  0  0  0  0
    5.8706    4.0054    0.0000 H   0  0  0  0  0  0  0  0  0  0  0  0
    4.2690   -1.7344    0.0000 H   0  0  0  0  0  0  0  0  0  0  0  0
    4.9272    1.8856    0.0000 H   0  0  0  0  0  0  0  0  0  0  0  0
    9.1836   -3.8168    0.0000 H   0  0  0  0  0  0  0  0  0  0  0  0
    9.5822   -4.5070    0.0000 H   0  0  0  0  0  0  0  0  0  0  0  0
    3.2646   -0.4495    0.0000 H   0  0  0  0  0  0  0  0  0  0  0  0
    2.4675   -0.4495    0.0000 H   0  0  0  0  0  0  0  0  0  0  0  0
   10.9703   -2.9614    0.0000 H   0  0  0  0  0  0  0  0  0  0  0  0
   11.1972   -2.1144    0.0000 H   0  0  0  0  0  0  0  0  0  0  0  0
   10.3503   -1.8875    0.0000 H   0  0  0  0  0  0  0  0  0  0  0  0
    3.1120   -2.4244    0.0000 H   0  0  0  0  0  0  0  0  0  0  0  0
    3.7320   -3.0444    0.0000 H   0  0  0  0  0  0  0  0  0  0  0  0
    4.3520   -2.4244    0.0000 H   0  0  0  0  0  0  0  0  0  0  0  0
   10.3503   -4.9614    0.0000 H   0  0  0  0  0  0  0  0  0  0  0  0
   11.1972   -4.7344    0.0000 H   0  0  0  0  0  0  0  0  0  0  0  0
   10.9703   -3.8875    0.0000 H   0  0  0  0  0  0  0  0  0  0  0  0
    1.6900   -0.8875    0.0000 H   0  0  0  0  0  0  0  0  0  0  0  0
    1.4631   -1.7344    0.0000 H   0  0  0  0  0  0  0  0  0  0  0  0
    2.3100   -1.9614    0.0000 H   0  0  0  0  0  0  0  0  0  0  0  0
 14  1  1  6  0  0  0
 17  1  1  6  0  0  0
  2 14  1  0  0  0  0
  2 19  1  0  0  0  0
  3 17  1  0  0  0  0
  3 22  1  0  0  0  0
 18  4  1  6  0  0  0
  4 26  1  0  0  0  0
 15  5  1  6  0  0  0
  5 50  1  0  0  0  0
 21  6  1  6  0  0  0
  6 27  1  0  0  0  0
 16  7  1  1  0  0  0
  7 51  1  0  0  0  0
 20  8  1  1  0  0  0
  8 52  1  0  0  0  0
  9 23  1  0  0  0  0
  9 53  1  0  0  0  0
 10 24  1  0  0  0  0
 10 55  1  0  0  0  0
 11 25  1  0  0  0  0
 11 57  1  0  0  0  0
 12 26  2  0  0  0  0
 13 27  2  0  0  0  0
 14 15  1  0  0  0  0
 14 23  1  0  0  0  0
 15 16  1  0  0  0  0
 15 36  1  0  0  0  0
 16 19  1  0  0  0  0
 16 37  1  0  0  0  0
 17 18  1  0  0  0  0
 17 38  1  0  0  0  0
 18 20  1  0  0  0  0
 18 39  1  0  0  0  0
 19 24  1  6  0  0  0
 19 40  1  0  0  0  0
 20 21  1  0  0  0  0
 20 41  1  0  0  0  0
 21 22  1  0  0  0  0
 21 42  1  0  0  0  0
 22 25  1  1  0  0  0
 22 43  1  0  0  0  0
 23 44  1  0  0  0  0
 23 45  1  0  0  0  0
 24 46  1  0  0  0  0
 24 47  1  0  0  0  0
 25 48  1  0  0  0  0
 25 49  1  0  0  0  0
 26 28  1  0  0  0  0
 27 29  1  0  0  0  0
 28 30  1  0  0  0  0
 28 32  1  0  0  0  0
 28 54  1  0  0  0  0
 29 31  1  0  0  0  0
 29 33  1  0  0  0  0
 29 56  1  0  0  0  0
 30 34  1  0  0  0  0
 30 58  1  0  0  0  0
 30 59  1  0  0  0  0
 31 35  1  0  0  0  0
 31 60  1  0  0  0  0
 31 61  1  0  0  0  0
 32 62  1  0  0  0  0
 32 63  1  0  0  0  0
 32 64  1  0  0  0  0
 33 65  1  0  0  0  0
 33 66  1  0  0  0  0
 33 67  1  0  0  0  0
 34 68  1  0  0  0  0
 34 69  1  0  0  0  0
 34 70  1  0  0  0  0
 35 71  1  0  0  0  0
 35 72  1  0  0  0  0
 35 73  1  0  0  0  0
M  END
> <PUBCHEM_COMPOUND_CID>
131841438

> <PUBCHEM_COMPOUND_CANONICALIZED>
1

> <PUBCHEM_CACTVS_COMPLEXITY>
705

> <PUBCHEM_CACTVS_HBOND_ACCEPTOR>
13

> <PUBCHEM_CACTVS_HBOND_DONOR>
6

> <PUBCHEM_CACTVS_ROTATABLE_BOND>
13

> <PUBCHEM_CACTVS_SUBSKEYS>
AAADcfB4PAAAAAAAAAAAAAAAAAAAASAAAAAkAAAAAAAAAAAAAAAAGgAACAAADRSwgAMCCAAABgAIAACQCAAAAAAAAAAAAAEAAAAREBIAAAAiQAAFAAAHAAHAYAwIAAAAAAAAAAAAAAAAAAAAAAAAAAAAAA==

> <PUBCHEM_IUPAC_OPENEYE_NAME>
[(2R,3S,4S,5R,6R)-6-[(2S,3S,4S,5R)-3,4-dihydroxy-2,5-bis(hydroxymethyl)tetrahydrofuran-2-yl]oxy-4-hydroxy-2-(hydroxymethyl)-5-(2-methylbutanoyloxy)tetrahydropyran-3-yl] 2-methylbutanoate

> <PUBCHEM_IUPAC_CAS_NAME>
2-methylbutanoic acid [(2R,3S,4S,5R,6R)-6-[[(2S,3S,4S,5R)-3,4-dihydroxy-2,5-bis(hydroxymethyl)-2-oxolanyl]oxy]-4-hydroxy-2-(hydroxymethyl)-5-(2-methyl-1-oxobutoxy)-3-oxanyl] ester

> <PUBCHEM_IUPAC_NAME_MARKUP>
[(2<I>R</I>,3<I>S</I>,4<I>S</I>,5<I>R</I>,6<I>R</I>)-6-[(2<I>S</I>,3<I>S</I>,4<I>S</I>,5<I>R</I>)-3,4-dihydroxy-2,5-bis(hydroxymethyl)oxolan-2-yl]oxy-4-hydroxy-2-(hydroxymethyl)-5-(2-methylbutanoyloxy)oxan-3-yl] 2-methylbutanoate

> <PUBCHEM_IUPAC_NAME>
[(2R,3S,4S,5R,6R)-6-[(2S,3S,4S,5R)-3,4-dihydroxy-2,5-bis(hydroxymethyl)oxolan-2-yl]oxy-4-hydroxy-2-(hydroxymethyl)-5-(2-methylbutanoyloxy)oxan-3-yl] 2-methylbutanoate

> <PUBCHEM_IUPAC_SYSTEMATIC_NAME>
[(2R,3S,4S,5R,6R)-6-[(2S,3S,4S,5R)-2,5-bis(hydroxymethyl)-3,4-bis(oxidanyl)oxolan-2-yl]oxy-2-(hydroxymethyl)-5-(2-methylbutanoyloxy)-4-oxidanyl-oxan-3-yl] 2-methylbutanoate

> <PUBCHEM_IUPAC_TRADITIONAL_NAME>
2-methylbutyric acid [(2R,3S,4S,5R,6R)-6-[(2S,3S,4S,5R)-3,4-dihydroxy-2,5-dimethylol-tetrahydrofuran-2-yl]oxy-4-hydroxy-5-(2-methylbutanoyloxy)-2-methylol-tetrahydropyran-3-yl] ester

> <PUBCHEM_IUPAC_INCHI>
InChI=1S/C22H38O13/c1-5-10(3)19(29)32-16-13(8-24)31-21(17(15(16)27)33-20(30)11(4)6-2)35-22(9-25)18(28)14(26)12(7-23)34-22/h10-18,21,23-28H,5-9H2,1-4H3/t10?,11?,12-,13-,14-,15+,16-,17-,18+,21-,22+/m1/s1

> <PUBCHEM_IUPAC_INCHIKEY>
ZIOCOLRVNXZCOM-LWUDQGBZSA-N

> <PUBCHEM_XLOGP3>
-0.3

> <PUBCHEM_EXACT_MASS>
510.23124126

> <PUBCHEM_MOLECULAR_FORMULA>
C22H38O13

> <PUBCHEM_MOLECULAR_WEIGHT>
510.5

> <PUBCHEM_OPENEYE_CAN_SMILES>
CCC(C)C(=O)OC1C(OC(C(C1O)OC(=O)C(C)CC)OC2(C(C(C(O2)CO)O)O)CO)CO

> <PUBCHEM_OPENEYE_ISO_SMILES>
CCC(C)C(=O)O[C@@H]1[C@H](O[C@@H]([C@@H]([C@H]1O)OC(=O)C(C)CC)O[C@]2([C@H]([C@@H]([C@H](O2)CO)O)O)CO)CO

> <PUBCHEM_CACTVS_TPSA>
202

> <PUBCHEM_MONOISOTOPIC_WEIGHT>
510.23124126

> <PUBCHEM_TOTAL_CHARGE>
0

> <PUBCHEM_HEAVY_ATOM_COUNT>
35

> <PUBCHEM_ATOM_DEF_STEREO_COUNT>
9

> <PUBCHEM_ATOM_UDEF_STEREO_COUNT>
2

> <PUBCHEM_BOND_DEF_STEREO_COUNT>
0

> <PUBCHEM_BOND_UDEF_STEREO_COUNT>
0

> <PUBCHEM_ISOTOPIC_ATOM_COUNT>
0

> <PUBCHEM_COMPONENT_COUNT>
1

> <PUBCHEM_CACTVS_TAUTO_COUNT>
-1

> <PUBCHEM_COORDINATE_TYPE>
1
5
255

> <PUBCHEM_BONDANNOTATIONS>
14  1  6
17  1  6
19  24  6
22  25  5
28  32  3
29  33  3
18  4  6
15  5  6
21  6  6
16  7  5
20  8  5

$$$$
