 
  -OEChem-10192103472D

 76 77  0     1  0  0  0  0  0999 V2000
   11.5263   -2.0950    0.0000 O   0  0  0  0  0  0  0  0  0  0  0  0
   10.6603   -0.5950    0.0000 O   0  0  0  0  0  0  0  0  0  0  0  0
    9.7942   -2.0950    0.0000 O   0  0  0  0  0  0  0  0  0  0  0  0
   13.2583   -1.0950    0.0000 O   0  0  0  0  0  0  0  0  0  0  0  0
   11.5263   -4.0950    0.0000 O   0  0  0  0  0  0  0  0  0  0  0  0
   13.2583    0.9050    0.0000 O   0  0  0  0  0  0  0  0  0  0  0  0
    9.7942   -5.0950    0.0000 O   0  0  0  0  0  0  0  0  0  0  0  0
   11.5263    1.9050    0.0000 O   0  0  0  0  0  0  0  0  0  0  0  0
    8.0622   -4.0950    0.0000 O   0  0  0  0  0  0  0  0  0  0  0  0
    7.1962   -2.5950    0.0000 O   0  0  0  0  0  0  0  0  0  0  0  0
    9.7942    1.9050    0.0000 O   0  0  0  0  0  0  0  0  0  0  0  0
    6.3301   -1.0950    0.0000 O   0  0  0  0  0  0  0  0  0  0  0  0
    8.0622    1.9050    0.0000 O   0  0  0  0  0  0  0  0  0  0  0  0
   11.5263   -1.0950    0.0000 C   0  0  1  0  0  0  0  0  0  0  0  0
   10.6603   -2.5950    0.0000 C   0  0  1  0  0  0  0  0  0  0  0  0
   12.3923   -0.5950    0.0000 C   0  0  3  0  0  0  0  0  0  0  0  0
   10.6603   -3.5950    0.0000 C   0  0  3  0  0  0  0  0  0  0  0  0
   12.3923    0.4050    0.0000 C   0  0  3  0  0  0  0  0  0  0  0  0
    9.7942   -4.0950    0.0000 C   0  0  2  0  0  0  0  0  0  0  0  0
   11.5263    0.9050    0.0000 C   0  0  1  0  0  0  0  0  0  0  0  0
    8.9282   -3.5950    0.0000 C   0  0  1  0  0  0  0  0  0  0  0  0
   10.6603    0.4050    0.0000 C   0  0  3  0  0  0  0  0  0  0  0  0
    8.9282   -2.5950    0.0000 C   0  0  3  0  0  0  0  0  0  0  0  0
    8.0622   -2.0950    0.0000 C   0  0  0  0  0  0  0  0  0  0  0  0
    9.7942    0.9050    0.0000 C   0  0  0  0  0  0  0  0  0  0  0  0
    6.3301   -2.0950    0.0000 C   0  0  0  0  0  0  0  0  0  0  0  0
    8.9282    2.4050    0.0000 C   0  0  0  0  0  0  0  0  0  0  0  0
    5.4641   -2.5950    0.0000 C   0  0  0  0  0  0  0  0  0  0  0  0
    8.9282    3.4050    0.0000 C   0  0  0  0  0  0  0  0  0  0  0  0
    4.5981   -2.0950    0.0000 C   0  0  0  0  0  0  0  0  0  0  0  0
    8.0622    3.9050    0.0000 C   0  0  0  0  0  0  0  0  0  0  0  0
    3.7320   -2.5950    0.0000 C   0  0  0  0  0  0  0  0  0  0  0  0
    8.0622    4.9050    0.0000 C   0  0  0  0  0  0  0  0  0  0  0  0
    2.8660   -2.0950    0.0000 C   0  0  0  0  0  0  0  0  0  0  0  0
    7.1962    5.4050    0.0000 C   0  0  0  0  0  0  0  0  0  0  0  0
    2.0000   -2.5950    0.0000 C   0  0  0  0  0  0  0  0  0  0  0  0
   10.9893   -1.4050    0.0000 H   0  0  0  0  0  0  0  0  0  0  0  0
   11.1972   -2.9050    0.0000 H   0  0  0  0  0  0  0  0  0  0  0  0
   12.9292   -0.2850    0.0000 H   0  0  0  0  0  0  0  0  0  0  0  0
   10.6603   -4.2150    0.0000 H   0  0  0  0  0  0  0  0  0  0  0  0
   12.3923    1.0250    0.0000 H   0  0  0  0  0  0  0  0  0  0  0  0
   10.3312   -4.4050    0.0000 H   0  0  0  0  0  0  0  0  0  0  0  0
   10.9893    1.2150    0.0000 H   0  0  0  0  0  0  0  0  0  0  0  0
    8.9282   -4.2150    0.0000 H   0  0  0  0  0  0  0  0  0  0  0  0
   10.1233    0.0950    0.0000 H   0  0  0  0  0  0  0  0  0  0  0  0
    8.9282   -1.9750    0.0000 H   0  0  0  0  0  0  0  0  0  0  0  0
    8.4607   -1.6200    0.0000 H   0  0  0  0  0  0  0  0  0  0  0  0
    7.6636   -1.6200    0.0000 H   0  0  0  0  0  0  0  0  0  0  0  0
    9.1836    1.0127    0.0000 H   0  0  0  0  0  0  0  0  0  0  0  0
    9.5822    0.3224    0.0000 H   0  0  0  0  0  0  0  0  0  0  0  0
   13.7953   -0.7850    0.0000 H   0  0  0  0  0  0  0  0  0  0  0  0
   11.5263   -4.7150    0.0000 H   0  0  0  0  0  0  0  0  0  0  0  0
   13.2583    1.5250    0.0000 H   0  0  0  0  0  0  0  0  0  0  0  0
    9.2573   -5.4050    0.0000 H   0  0  0  0  0  0  0  0  0  0  0  0
   12.0632    2.2150    0.0000 H   0  0  0  0  0  0  0  0  0  0  0  0
    8.0622   -4.7150    0.0000 H   0  0  0  0  0  0  0  0  0  0  0  0
    5.0656   -3.0700    0.0000 H   0  0  0  0  0  0  0  0  0  0  0  0
    5.8626   -3.0700    0.0000 H   0  0  0  0  0  0  0  0  0  0  0  0
    9.5388    3.2973    0.0000 H   0  0  0  0  0  0  0  0  0  0  0  0
    9.1403    3.9876    0.0000 H   0  0  0  0  0  0  0  0  0  0  0  0
    4.9966   -1.6200    0.0000 H   0  0  0  0  0  0  0  0  0  0  0  0
    4.1996   -1.6200    0.0000 H   0  0  0  0  0  0  0  0  0  0  0  0
    7.4516    4.0127    0.0000 H   0  0  0  0  0  0  0  0  0  0  0  0
    7.8501    3.3224    0.0000 H   0  0  0  0  0  0  0  0  0  0  0  0
    3.3335   -3.0700    0.0000 H   0  0  0  0  0  0  0  0  0  0  0  0
    4.1306   -3.0700    0.0000 H   0  0  0  0  0  0  0  0  0  0  0  0
    8.6728    4.7973    0.0000 H   0  0  0  0  0  0  0  0  0  0  0  0
    8.2742    5.4876    0.0000 H   0  0  0  0  0  0  0  0  0  0  0  0
    3.2646   -1.6200    0.0000 H   0  0  0  0  0  0  0  0  0  0  0  0
    2.4675   -1.6200    0.0000 H   0  0  0  0  0  0  0  0  0  0  0  0
    7.5062    5.9419    0.0000 H   0  0  0  0  0  0  0  0  0  0  0  0
    6.6592    5.7150    0.0000 H   0  0  0  0  0  0  0  0  0  0  0  0
    6.8862    4.8681    0.0000 H   0  0  0  0  0  0  0  0  0  0  0  0
    1.6900   -2.0581    0.0000 H   0  0  0  0  0  0  0  0  0  0  0  0
    1.4631   -2.9050    0.0000 H   0  0  0  0  0  0  0  0  0  0  0  0
    2.3100   -3.1319    0.0000 H   0  0  0  0  0  0  0  0  0  0  0  0
 14  1  1  1  0  0  0
 15  1  1  6  0  0  0
  2 14  1  0  0  0  0
  2 22  1  0  0  0  0
  3 15  1  0  0  0  0
  3 23  1  0  0  0  0
  4 16  1  0  0  0  0
  4 51  1  0  0  0  0
  5 17  1  0  0  0  0
  5 52  1  0  0  0  0
  6 18  1  0  0  0  0
  6 53  1  0  0  0  0
 19  7  1  1  0  0  0
  7 54  1  0  0  0  0
 20  8  1  1  0  0  0
  8 55  1  0  0  0  0
 21  9  1  6  0  0  0
  9 56  1  0  0  0  0
 10 24  1  0  0  0  0
 10 26  1  0  0  0  0
 11 25  1  0  0  0  0
 11 27  1  0  0  0  0
 12 26  2  0  0  0  0
 13 27  2  0  0  0  0
 14 16  1  0  0  0  0
 14 37  1  0  0  0  0
 15 17  1  0  0  0  0
 15 38  1  0  0  0  0
 16 18  1  0  0  0  0
 16 39  1  0  0  0  0
 17 19  1  0  0  0  0
 17 40  1  0  0  0  0
 18 20  1  0  0  0  0
 18 41  1  0  0  0  0
 19 21  1  0  0  0  0
 19 42  1  0  0  0  0
 20 22  1  0  0  0  0
 20 43  1  0  0  0  0
 21 23  1  0  0  0  0
 21 44  1  0  0  0  0
 22 25  1  0  0  0  0
 22 45  1  0  0  0  0
 23 24  1  0  0  0  0
 23 46  1  0  0  0  0
 24 47  1  0  0  0  0
 24 48  1  0  0  0  0
 25 49  1  0  0  0  0
 25 50  1  0  0  0  0
 26 28  1  0  0  0  0
 27 29  1  0  0  0  0
 28 30  1  0  0  0  0
 28 57  1  0  0  0  0
 28 58  1  0  0  0  0
 29 31  1  0  0  0  0
 29 59  1  0  0  0  0
 29 60  1  0  0  0  0
 30 32  1  0  0  0  0
 30 61  1  0  0  0  0
 30 62  1  0  0  0  0
 31 33  1  0  0  0  0
 31 63  1  0  0  0  0
 31 64  1  0  0  0  0
 32 34  1  0  0  0  0
 32 65  1  0  0  0  0
 32 66  1  0  0  0  0
 33 35  1  0  0  0  0
 33 67  1  0  0  0  0
 33 68  1  0  0  0  0
 34 36  1  0  0  0  0
 34 69  1  0  0  0  0
 34 70  1  0  0  0  0
 35 71  1  0  0  0  0
 35 72  1  0  0  0  0
 35 73  1  0  0  0  0
 36 74  1  0  0  0  0
 36 75  1  0  0  0  0
 36 76  1  0  0  0  0
M  END
> <PUBCHEM_COMPOUND_CID>
70905901

> <PUBCHEM_COMPOUND_CANONICALIZED>
1

> <PUBCHEM_CACTVS_COMPLEXITY>
676

> <PUBCHEM_CACTVS_HBOND_ACCEPTOR>
13

> <PUBCHEM_CACTVS_HBOND_DONOR>
6

> <PUBCHEM_CACTVS_ROTATABLE_BOND>
15

> <PUBCHEM_CACTVS_SUBSKEYS>
AAADcfB4PAAAAAAAAAAAAAAAAAAAAAAAAAAkSAAAAAAAAAAAAAAAGgAACAAACBSwgAMCCAAABgAIAACQCAAAAAAAAAAAAAEAAAAREBIAAAAiQAAFAAAHAAHIaAwAAAAAAAAAAAAAAAAAAAAAAAAAAAAAAA==

> <PUBCHEM_IUPAC_OPENEYE_NAME>
[(3S,4S,6R)-3,4,5-trihydroxy-6-[(2R,5S)-3,4,5-trihydroxy-6-(pentanoyloxymethyl)tetrahydropyran-2-yl]oxy-tetrahydropyran-2-yl]methyl hexanoate

> <PUBCHEM_IUPAC_CAS_NAME>
hexanoic acid [(3S,4S,6R)-3,4,5-trihydroxy-6-[[(2R,5S)-3,4,5-trihydroxy-6-(1-oxopentoxymethyl)-2-oxanyl]oxy]-2-oxanyl]methyl ester

> <PUBCHEM_IUPAC_NAME_MARKUP>
[(3<I>S</I>,4<I>S</I>,6<I>R</I>)-3,4,5-trihydroxy-6-[(2<I>R</I>,5<I>S</I>)-3,4,5-trihydroxy-6-(pentanoyloxymethyl)oxan-2-yl]oxyoxan-2-yl]methyl hexanoate

> <PUBCHEM_IUPAC_NAME>
[(3S,4S,6R)-3,4,5-trihydroxy-6-[(2R,5S)-3,4,5-trihydroxy-6-(pentanoyloxymethyl)oxan-2-yl]oxyoxan-2-yl]methyl hexanoate

> <PUBCHEM_IUPAC_SYSTEMATIC_NAME>
[(3S,4S,6R)-3,4,5-tris(oxidanyl)-6-[(2R,5S)-3,4,5-tris(oxidanyl)-6-(pentanoyloxymethyl)oxan-2-yl]oxy-oxan-2-yl]methyl hexanoate

> <PUBCHEM_IUPAC_TRADITIONAL_NAME>
hexanoic acid [(3S,4S,6R)-3,4,5-trihydroxy-6-[(2R,5S)-3,4,5-trihydroxy-6-(valeryloxymethyl)tetrahydropyran-2-yl]oxy-tetrahydropyran-2-yl]methyl ester

> <PUBCHEM_IUPAC_INCHI>
InChI=1S/C23H40O13/c1-3-5-7-9-15(25)33-11-13-17(27)19(29)21(31)23(35-13)36-22-20(30)18(28)16(26)12(34-22)10-32-14(24)8-6-4-2/h12-13,16-23,26-31H,3-11H2,1-2H3/t12?,13?,16-,17-,18?,19+,20?,21?,22-,23-/m1/s1

> <PUBCHEM_IUPAC_INCHIKEY>
LSIWEOQRCAJZJR-QQDNUSNTSA-N

> <PUBCHEM_XLOGP3_AA>
-0.9

> <PUBCHEM_EXACT_MASS>
524.24689133

> <PUBCHEM_MOLECULAR_FORMULA>
C23H40O13

> <PUBCHEM_MOLECULAR_WEIGHT>
524.6

> <PUBCHEM_OPENEYE_CAN_SMILES>
CCCCCC(=O)OCC1C(C(C(C(O1)OC2C(C(C(C(O2)COC(=O)CCCC)O)O)O)O)O)O

> <PUBCHEM_OPENEYE_ISO_SMILES>
CCCCCC(=O)OCC1[C@H]([C@@H](C([C@H](O1)O[C@@H]2C(C([C@@H](C(O2)COC(=O)CCCC)O)O)O)O)O)O

> <PUBCHEM_CACTVS_TPSA>
202

> <PUBCHEM_MONOISOTOPIC_WEIGHT>
524.24689133

> <PUBCHEM_TOTAL_CHARGE>
0

> <PUBCHEM_HEAVY_ATOM_COUNT>
36

> <PUBCHEM_ATOM_DEF_STEREO_COUNT>
5

> <PUBCHEM_ATOM_UDEF_STEREO_COUNT>
5

> <PUBCHEM_BOND_DEF_STEREO_COUNT>
0

> <PUBCHEM_BOND_UDEF_STEREO_COUNT>
0

> <PUBCHEM_ISOTOPIC_ATOM_COUNT>
0

> <PUBCHEM_COMPONENT_COUNT>
1

> <PUBCHEM_CACTVS_TAUTO_COUNT>
-1

> <PUBCHEM_COORDINATE_TYPE>
1
5
255

> <PUBCHEM_BONDANNOTATIONS>
14  1  5
15  1  6
22  25  3
23  24  3
16  4  3
17  5  3
18  6  3
19  7  5
20  8  5
21  9  6

$$$$
