 
  -OEChem-10192103332D

 89 90  0     1  0  0  0  0  0999 V2000
   13.3303   -9.9945    0.0000 P   0  0  3  0  0  0  0  0  0  0  0  0
   14.9127  -10.6989    0.0000 P   0  0  0  0  0  0  0  0  0  0  0  0
   11.4693   -7.5299    0.0000 O   0  0  0  0  0  0  0  0  0  0  0  0
    9.5725   -9.2900    0.0000 O   0  0  0  0  0  0  0  0  0  0  0  0
    8.9002   -7.2209    0.0000 O   0  0  0  0  0  0  0  0  0  0  0  0
   12.7426   -9.1854    0.0000 O   0  0  0  0  0  0  0  0  0  0  0  0
   12.3923   -5.9421    0.0000 O   0  0  0  0  0  0  0  0  0  0  0  0
   13.9181  -10.8035    0.0000 O   0  0  0  0  0  0  0  0  0  0  0  0
   14.1394   -9.4067    0.0000 O   0  0  0  0  0  0  0  0  0  0  0  0
   12.5213  -10.5822    0.0000 O   0  0  0  0  0  0  0  0  0  0  0  0
    8.9282   -2.9421    0.0000 O   0  0  0  0  0  0  0  0  0  0  0  0
   15.9072  -10.5944    0.0000 O   0  0  0  0  0  0  0  0  0  0  0  0
   15.0172  -11.6935    0.0000 O   0  0  0  0  0  0  0  0  0  0  0  0
   14.8081   -9.7044    0.0000 O   0  0  0  0  0  0  0  0  0  0  0  0
   10.6603   -5.9421    0.0000 N   0  0  0  0  0  0  0  0  0  0  0  0
   11.5263   -4.4421    0.0000 N   0  0  0  0  0  0  0  0  0  0  0  0
   10.6603   -2.9421    0.0000 N   0  0  0  0  0  0  0  0  0  0  0  0
   10.1603   -8.4810    0.0000 C   0  0  3  0  0  0  0  0  0  0  0  0
    9.8512   -7.5299    0.0000 C   0  0  3  0  0  0  0  0  0  0  0  0
   11.1603   -8.4810    0.0000 C   0  0  3  0  0  0  0  0  0  0  0  0
   10.6603   -6.9421    0.0000 C   0  0  3  0  0  0  0  0  0  0  0  0
   11.7480   -9.2900    0.0000 C   0  0  0  0  0  0  0  0  0  0  0  0
    9.7942   -5.4421    0.0000 C   0  0  0  0  0  0  0  0  0  0  0  0
   11.5263   -5.4421    0.0000 C   0  0  0  0  0  0  0  0  0  0  0  0
    9.7942   -4.4421    0.0000 C   0  0  0  0  0  0  0  0  0  0  0  0
   10.6603   -3.9421    0.0000 C   0  0  0  0  0  0  0  0  0  0  0  0
    9.7942   -2.4421    0.0000 C   0  0  0  0  0  0  0  0  0  0  0  0
    9.7942   -1.4421    0.0000 C   0  0  0  0  0  0  0  0  0  0  0  0
    8.9282   -0.9421    0.0000 C   0  0  0  0  0  0  0  0  0  0  0  0
    8.9282    0.0579    0.0000 C   0  0  0  0  0  0  0  0  0  0  0  0
    8.0622    0.5579    0.0000 C   0  0  0  0  0  0  0  0  0  0  0  0
    8.0622    1.5579    0.0000 C   0  0  0  0  0  0  0  0  0  0  0  0
    7.1962    2.0579    0.0000 C   0  0  0  0  0  0  0  0  0  0  0  0
    7.1962    3.0579    0.0000 C   0  0  0  0  0  0  0  0  0  0  0  0
    6.3301    3.5579    0.0000 C   0  0  0  0  0  0  0  0  0  0  0  0
    6.3301    4.5579    0.0000 C   0  0  0  0  0  0  0  0  0  0  0  0
    5.4641    5.0579    0.0000 C   0  0  0  0  0  0  0  0  0  0  0  0
    4.5981    6.5579    0.0000 C   0  0  0  0  0  0  0  0  0  0  0  0
    5.4641    6.0579    0.0000 C   0  0  0  0  0  0  0  0  0  0  0  0
    4.5981    7.5579    0.0000 C   0  0  0  0  0  0  0  0  0  0  0  0
    3.7320    9.0579    0.0000 C   0  0  0  0  0  0  0  0  0  0  0  0
    3.7320    8.0579    0.0000 C   0  0  0  0  0  0  0  0  0  0  0  0
    2.8660    9.5579    0.0000 C   0  0  0  0  0  0  0  0  0  0  0  0
    2.0000   11.0579    0.0000 C   0  0  0  0  0  0  0  0  0  0  0  0
    2.8660   10.5579    0.0000 C   0  0  0  0  0  0  0  0  0  0  0  0
    2.0000   12.0579    0.0000 C   0  0  0  0  0  0  0  0  0  0  0  0
   10.4417   -9.0334    0.0000 H   0  0  0  0  0  0  0  0  0  0  0  0
    9.4128   -7.9683    0.0000 H   0  0  0  0  0  0  0  0  0  0  0  0
   11.7726   -8.3840    0.0000 H   0  0  0  0  0  0  0  0  0  0  0  0
   11.2127   -6.6606    0.0000 H   0  0  0  0  0  0  0  0  0  0  0  0
   11.1908   -9.5618    0.0000 H   0  0  0  0  0  0  0  0  0  0  0  0
   11.9189   -9.8860    0.0000 H   0  0  0  0  0  0  0  0  0  0  0  0
    9.8246   -9.8564    0.0000 H   0  0  0  0  0  0  0  0  0  0  0  0
    8.4394   -7.6357    0.0000 H   0  0  0  0  0  0  0  0  0  0  0  0
    9.2573   -5.7521    0.0000 H   0  0  0  0  0  0  0  0  0  0  0  0
    9.2573   -4.1321    0.0000 H   0  0  0  0  0  0  0  0  0  0  0  0
   11.1972   -2.6321    0.0000 H   0  0  0  0  0  0  0  0  0  0  0  0
   14.0746   -8.7901    0.0000 H   0  0  0  0  0  0  0  0  0  0  0  0
   10.4048   -1.5498    0.0000 H   0  0  0  0  0  0  0  0  0  0  0  0
   10.0063   -0.8595    0.0000 H   0  0  0  0  0  0  0  0  0  0  0  0
    8.3176   -0.8344    0.0000 H   0  0  0  0  0  0  0  0  0  0  0  0
    8.7162   -1.5247    0.0000 H   0  0  0  0  0  0  0  0  0  0  0  0
    9.5388   -0.0498    0.0000 H   0  0  0  0  0  0  0  0  0  0  0  0
    9.1403    0.6405    0.0000 H   0  0  0  0  0  0  0  0  0  0  0  0
   16.2716  -11.0960    0.0000 H   0  0  0  0  0  0  0  0  0  0  0  0
   14.5156  -12.0579    0.0000 H   0  0  0  0  0  0  0  0  0  0  0  0
    7.5252    0.2479    0.0000 H   0  0  0  0  0  0  0  0  0  0  0  0
    8.5991    1.8679    0.0000 H   0  0  0  0  0  0  0  0  0  0  0  0
    6.5856    2.1656    0.0000 H   0  0  0  0  0  0  0  0  0  0  0  0
    6.9841    1.4753    0.0000 H   0  0  0  0  0  0  0  0  0  0  0  0
    7.7331    3.3679    0.0000 H   0  0  0  0  0  0  0  0  0  0  0  0
    5.7932    3.2479    0.0000 H   0  0  0  0  0  0  0  0  0  0  0  0
    6.9407    4.4502    0.0000 H   0  0  0  0  0  0  0  0  0  0  0  0
    6.5422    5.1405    0.0000 H   0  0  0  0  0  0  0  0  0  0  0  0
    4.9272    4.7479    0.0000 H   0  0  0  0  0  0  0  0  0  0  0  0
    3.9875    6.6656    0.0000 H   0  0  0  0  0  0  0  0  0  0  0  0
    4.3860    5.9753    0.0000 H   0  0  0  0  0  0  0  0  0  0  0  0
    6.0010    6.3679    0.0000 H   0  0  0  0  0  0  0  0  0  0  0  0
    5.1350    7.8679    0.0000 H   0  0  0  0  0  0  0  0  0  0  0  0
    4.3426    8.9502    0.0000 H   0  0  0  0  0  0  0  0  0  0  0  0
    3.9441    9.6405    0.0000 H   0  0  0  0  0  0  0  0  0  0  0  0
    3.1951    7.7479    0.0000 H   0  0  0  0  0  0  0  0  0  0  0  0
    2.3291    9.2479    0.0000 H   0  0  0  0  0  0  0  0  0  0  0  0
    1.3894   11.1656    0.0000 H   0  0  0  0  0  0  0  0  0  0  0  0
    1.7880   10.4753    0.0000 H   0  0  0  0  0  0  0  0  0  0  0  0
    3.4030   10.8679    0.0000 H   0  0  0  0  0  0  0  0  0  0  0  0
    2.6200   12.0579    0.0000 H   0  0  0  0  0  0  0  0  0  0  0  0
    2.0000   12.6779    0.0000 H   0  0  0  0  0  0  0  0  0  0  0  0
    1.3800   12.0579    0.0000 H   0  0  0  0  0  0  0  0  0  0  0  0
  1  6  1  0  0  0  0
  1  8  1  0  0  0  0
  1  9  1  0  0  0  0
  1 10  2  0  0  0  0
  2  8  1  0  0  0  0
  2 12  1  0  0  0  0
  2 13  1  0  0  0  0
  2 14  2  0  0  0  0
  3 20  1  0  0  0  0
  3 21  1  0  0  0  0
  4 18  1  0  0  0  0
  4 53  1  0  0  0  0
  5 19  1  0  0  0  0
  5 54  1  0  0  0  0
  6 22  1  0  0  0  0
  7 24  2  0  0  0  0
  9 58  1  0  0  0  0
 11 27  2  0  0  0  0
 12 65  1  0  0  0  0
 13 66  1  0  0  0  0
 15 21  1  0  0  0  0
 15 23  1  0  0  0  0
 15 24  1  0  0  0  0
 16 24  1  0  0  0  0
 16 26  2  0  0  0  0
 17 26  1  0  0  0  0
 17 27  1  0  0  0  0
 17 57  1  0  0  0  0
 18 19  1  0  0  0  0
 18 20  1  0  0  0  0
 18 47  1  0  0  0  0
 19 21  1  0  0  0  0
 19 48  1  0  0  0  0
 20 22  1  0  0  0  0
 20 49  1  0  0  0  0
 21 50  1  0  0  0  0
 22 51  1  0  0  0  0
 22 52  1  0  0  0  0
 23 25  2  0  0  0  0
 23 55  1  0  0  0  0
 25 26  1  0  0  0  0
 25 56  1  0  0  0  0
 27 28  1  0  0  0  0
 28 29  1  0  0  0  0
 28 59  1  0  0  0  0
 28 60  1  0  0  0  0
 29 30  1  0  0  0  0
 29 61  1  0  0  0  0
 29 62  1  0  0  0  0
 30 31  1  0  0  0  0
 30 63  1  0  0  0  0
 30 64  1  0  0  0  0
 31 32  2  3  0  0  0
 31 67  1  0  0  0  0
 32 33  1  0  0  0  0
 32 68  1  0  0  0  0
 33 34  1  0  0  0  0
 33 69  1  0  0  0  0
 33 70  1  0  0  0  0
 34 35  2  3  0  0  0
 34 71  1  0  0  0  0
 35 36  1  0  0  0  0
 35 72  1  0  0  0  0
 36 37  1  0  0  0  0
 36 73  1  0  0  0  0
 36 74  1  0  0  0  0
 37 39  2  3  0  0  0
 37 75  1  0  0  0  0
 38 39  1  0  0  0  0
 38 40  1  0  0  0  0
 38 76  1  0  0  0  0
 38 77  1  0  0  0  0
 39 78  1  0  0  0  0
 40 42  2  3  0  0  0
 40 79  1  0  0  0  0
 41 42  1  0  0  0  0
 41 43  1  0  0  0  0
 41 80  1  0  0  0  0
 41 81  1  0  0  0  0
 42 82  1  0  0  0  0
 43 45  2  3  0  0  0
 43 83  1  0  0  0  0
 44 45  1  0  0  0  0
 44 46  1  0  0  0  0
 44 84  1  0  0  0  0
 44 85  1  0  0  0  0
 45 86  1  0  0  0  0
 46 87  1  0  0  0  0
 46 88  1  0  0  0  0
 46 89  1  0  0  0  0
M  END
> <PUBCHEM_COMPOUND_CID>
123425407

> <PUBCHEM_COMPOUND_CANONICALIZED>
1

> <PUBCHEM_CACTVS_COMPLEXITY>
1300

> <PUBCHEM_CACTVS_HBOND_ACCEPTOR>
12

> <PUBCHEM_CACTVS_HBOND_DONOR>
6

> <PUBCHEM_CACTVS_ROTATABLE_BOND>
20

> <PUBCHEM_CACTVS_SUBSKEYS>
AAADcfB7PAMAAAAAAAAAAAAAAAAAASAAAAAgAAAAAAAAAAAAAAAAHgAQCCAACBThgAYDAAPABxCoQCN2dICAAAEgAgAJCAEYABiDEBIAiQAOQAAHlgKbAAL4MAIAAAAAAAAAAAAAAAAAAAAAAAAAAAAAAA==

> <PUBCHEM_IUPAC_OPENEYE_NAME>
[3,4-dihydroxy-5-[4-(icosa-5,8,11,14,17-pentaenoylamino)-2-oxo-pyrimidin-1-yl]tetrahydrofuran-2-yl]methyl phosphono hydrogen phosphate

> <PUBCHEM_IUPAC_CAS_NAME>
[3,4-dihydroxy-5-[2-oxo-4-(1-oxoeicosa-5,8,11,14,17-pentaenylamino)-1-pyrimidinyl]-2-oxolanyl]methyl phosphono hydrogen phosphate

> <PUBCHEM_IUPAC_NAME_MARKUP>
[3,4-dihydroxy-5-[4-(icosa-5,8,11,14,17-pentaenoylamino)-2-oxopyrimidin-1-yl]oxolan-2-yl]methyl phosphono hydrogen phosphate

> <PUBCHEM_IUPAC_NAME>
[3,4-dihydroxy-5-[4-(icosa-5,8,11,14,17-pentaenoylamino)-2-oxopyrimidin-1-yl]oxolan-2-yl]methyl phosphono hydrogen phosphate

> <PUBCHEM_IUPAC_SYSTEMATIC_NAME>
[5-[4-(icosa-5,8,11,14,17-pentaenoylamino)-2-oxidanylidene-pyrimidin-1-yl]-3,4-bis(oxidanyl)oxolan-2-yl]methyl phosphono hydrogen phosphate

> <PUBCHEM_IUPAC_TRADITIONAL_NAME>
[5-[4-(eicosa-5,8,11,14,17-pentaenoylamino)-2-keto-pyrimidin-1-yl]-3,4-dihydroxy-tetrahydrofuran-2-yl]methyl phosphono hydrogen phosphate

> <PUBCHEM_IUPAC_INCHI>
InChI=1S/C29H43N3O12P2/c1-2-3-4-5-6-7-8-9-10-11-12-13-14-15-16-17-18-19-25(33)30-24-20-21-32(29(36)31-24)28-27(35)26(34)23(43-28)22-42-46(40,41)44-45(37,38)39/h3-4,6-7,9-10,12-13,15-16,20-21,23,26-28,34-35H,2,5,8,11,14,17-19,22H2,1H3,(H,40,41)(H2,37,38,39)(H,30,31,33,36)

> <PUBCHEM_IUPAC_INCHIKEY>
JEUNSBBWIMXPPN-UHFFFAOYSA-N

> <PUBCHEM_XLOGP3>
1.7

> <PUBCHEM_EXACT_MASS>
687.23219781

> <PUBCHEM_MOLECULAR_FORMULA>
C29H43N3O12P2

> <PUBCHEM_MOLECULAR_WEIGHT>
687.6

> <PUBCHEM_OPENEYE_CAN_SMILES>
CCC=CCC=CCC=CCC=CCC=CCCCC(=O)NC1=NC(=O)N(C=C1)C2C(C(C(O2)COP(=O)(O)OP(=O)(O)O)O)O

> <PUBCHEM_OPENEYE_ISO_SMILES>
CCC=CCC=CCC=CCC=CCC=CCCCC(=O)NC1=NC(=O)N(C=C1)C2C(C(C(O2)COP(=O)(O)OP(=O)(O)O)O)O

> <PUBCHEM_CACTVS_TPSA>
225

> <PUBCHEM_MONOISOTOPIC_WEIGHT>
687.23219781

> <PUBCHEM_TOTAL_CHARGE>
0

> <PUBCHEM_HEAVY_ATOM_COUNT>
46

> <PUBCHEM_ATOM_DEF_STEREO_COUNT>
0

> <PUBCHEM_ATOM_UDEF_STEREO_COUNT>
4

> <PUBCHEM_BOND_DEF_STEREO_COUNT>
0

> <PUBCHEM_BOND_UDEF_STEREO_COUNT>
5

> <PUBCHEM_ISOTOPIC_ATOM_COUNT>
0

> <PUBCHEM_COMPONENT_COUNT>
1

> <PUBCHEM_CACTVS_TAUTO_COUNT>
-1

> <PUBCHEM_COORDINATE_TYPE>
1
5
255

> <PUBCHEM_BONDANNOTATIONS>
21  15  3
15  23  8
15  24  8
16  24  8
16  26  8
20  22  3
23  25  8
25  26  8
31  32  1
34  35  1
37  39  1
18  4  3
40  42  1
43  45  1
19  5  3

$$$$
