 
  -OEChem-10192103282D

 80 82  0     0  0  0  0  0  0999 V2000
    5.4641   -6.7500    0.0000 O   0  0  0  0  0  0  0  0  0  0  0  0
    8.0622    6.7500    0.0000 O   0  0  0  0  0  0  0  0  0  0  0  0
    2.8660  -10.2500    0.0000 O   0  0  0  0  0  0  0  0  0  0  0  0
    9.7942   10.7500    0.0000 O   0  0  0  0  0  0  0  0  0  0  0  0
    6.3301   -2.2500    0.0000 O   0  0  0  0  0  0  0  0  0  0  0  0
    7.1962    2.2500    0.0000 O   0  0  0  0  0  0  0  0  0  0  0  0
    6.3301    6.7500    0.0000 O   0  0  0  0  0  0  0  0  0  0  0  0
    4.5981   -2.2500    0.0000 O   0  0  0  0  0  0  0  0  0  0  0  0
    3.7320  -11.7500    0.0000 O   0  0  0  0  0  0  0  0  0  0  0  0
   11.5263   10.7500    0.0000 O   0  0  0  0  0  0  0  0  0  0  0  0
    5.4641    2.2500    0.0000 O   0  0  0  0  0  0  0  0  0  0  0  0
    4.5981   -8.2500    0.0000 C   0  0  0  0  0  0  0  0  0  0  0  0
    3.7320   -8.7500    0.0000 C   0  0  0  0  0  0  0  0  0  0  0  0
    8.9282    8.2500    0.0000 C   0  0  0  0  0  0  0  0  0  0  0  0
    8.9282    9.2500    0.0000 C   0  0  0  0  0  0  0  0  0  0  0  0
    4.5981   -7.2500    0.0000 C   0  0  0  0  0  0  0  0  0  0  0  0
    3.7320   -9.7500    0.0000 C   0  0  0  0  0  0  0  0  0  0  0  0
    8.0622    7.7500    0.0000 C   0  0  0  0  0  0  0  0  0  0  0  0
    9.7942    9.7500    0.0000 C   0  0  0  0  0  0  0  0  0  0  0  0
    5.4641   -5.7500    0.0000 C   0  0  0  0  0  0  0  0  0  0  0  0
    4.5981   -5.2500    0.0000 C   0  0  0  0  0  0  0  0  0  0  0  0
    6.3301   -5.2500    0.0000 C   0  0  0  0  0  0  0  0  0  0  0  0
    5.4641   -3.7500    0.0000 C   0  0  0  0  0  0  0  0  0  0  0  0
    7.1962    5.2500    0.0000 C   0  0  0  0  0  0  0  0  0  0  0  0
    7.1962    6.2500    0.0000 C   0  0  0  0  0  0  0  0  0  0  0  0
    4.5981   -4.2500    0.0000 C   0  0  0  0  0  0  0  0  0  0  0  0
    6.3301   -4.2500    0.0000 C   0  0  0  0  0  0  0  0  0  0  0  0
    6.3301    4.7500    0.0000 C   0  0  0  0  0  0  0  0  0  0  0  0
    8.0622    4.7500    0.0000 C   0  0  0  0  0  0  0  0  0  0  0  0
    7.1962    3.2500    0.0000 C   0  0  0  0  0  0  0  0  0  0  0  0
    5.4641   -2.7500    0.0000 C   0  0  0  0  0  0  0  0  0  0  0  0
    6.3301    3.7500    0.0000 C   0  0  0  0  0  0  0  0  0  0  0  0
    8.0622    3.7500    0.0000 C   0  0  0  0  0  0  0  0  0  0  0  0
    2.8660  -11.2500    0.0000 C   0  0  0  0  0  0  0  0  0  0  0  0
    6.3301   -1.2500    0.0000 C   0  0  0  0  0  0  0  0  0  0  0  0
    6.3301    0.7500    0.0000 C   0  0  0  0  0  0  0  0  0  0  0  0
   10.6603   11.2500    0.0000 C   0  0  0  0  0  0  0  0  0  0  0  0
    7.1962   -0.7500    0.0000 C   0  0  0  0  0  0  0  0  0  0  0  0
    5.4641   -0.7500    0.0000 C   0  0  0  0  0  0  0  0  0  0  0  0
    7.1962    0.2500    0.0000 C   0  0  0  0  0  0  0  0  0  0  0  0
    5.4641    0.2500    0.0000 C   0  0  0  0  0  0  0  0  0  0  0  0
    6.3301    1.7500    0.0000 C   0  0  0  0  0  0  0  0  0  0  0  0
    2.0000  -11.7500    0.0000 C   0  0  0  0  0  0  0  0  0  0  0  0
   10.6603   12.2500    0.0000 C   0  0  0  0  0  0  0  0  0  0  0  0
    2.0000  -12.7500    0.0000 C   0  0  0  0  0  0  0  0  0  0  0  0
   11.5263   12.7500    0.0000 C   0  0  0  0  0  0  0  0  0  0  0  0
    4.8101   -8.8326    0.0000 H   0  0  0  0  0  0  0  0  0  0  0  0
    5.2087   -8.1423    0.0000 H   0  0  0  0  0  0  0  0  0  0  0  0
    3.5200   -8.1674    0.0000 H   0  0  0  0  0  0  0  0  0  0  0  0
    3.1215   -8.8577    0.0000 H   0  0  0  0  0  0  0  0  0  0  0  0
    9.1403    7.6674    0.0000 H   0  0  0  0  0  0  0  0  0  0  0  0
    9.5388    8.3577    0.0000 H   0  0  0  0  0  0  0  0  0  0  0  0
    8.7162    9.8326    0.0000 H   0  0  0  0  0  0  0  0  0  0  0  0
    8.3176    9.1423    0.0000 H   0  0  0  0  0  0  0  0  0  0  0  0
    4.3860   -6.6674    0.0000 H   0  0  0  0  0  0  0  0  0  0  0  0
    3.9875   -7.3577    0.0000 H   0  0  0  0  0  0  0  0  0  0  0  0
    3.9441  -10.3326    0.0000 H   0  0  0  0  0  0  0  0  0  0  0  0
    4.3426   -9.6423    0.0000 H   0  0  0  0  0  0  0  0  0  0  0  0
    7.8501    8.3326    0.0000 H   0  0  0  0  0  0  0  0  0  0  0  0
    7.4516    7.6423    0.0000 H   0  0  0  0  0  0  0  0  0  0  0  0
   10.0063    9.1674    0.0000 H   0  0  0  0  0  0  0  0  0  0  0  0
   10.4048    9.8577    0.0000 H   0  0  0  0  0  0  0  0  0  0  0  0
    4.0611   -5.5600    0.0000 H   0  0  0  0  0  0  0  0  0  0  0  0
    6.8671   -5.5600    0.0000 H   0  0  0  0  0  0  0  0  0  0  0  0
    4.0611   -3.9400    0.0000 H   0  0  0  0  0  0  0  0  0  0  0  0
    6.8671   -3.9400    0.0000 H   0  0  0  0  0  0  0  0  0  0  0  0
    5.7932    5.0600    0.0000 H   0  0  0  0  0  0  0  0  0  0  0  0
    8.5991    5.0600    0.0000 H   0  0  0  0  0  0  0  0  0  0  0  0
    5.7932    3.4400    0.0000 H   0  0  0  0  0  0  0  0  0  0  0  0
    8.5991    3.4400    0.0000 H   0  0  0  0  0  0  0  0  0  0  0  0
    7.7331   -1.0600    0.0000 H   0  0  0  0  0  0  0  0  0  0  0  0
    4.9272   -1.0600    0.0000 H   0  0  0  0  0  0  0  0  0  0  0  0
    7.7331    0.5600    0.0000 H   0  0  0  0  0  0  0  0  0  0  0  0
    4.9272    0.5600    0.0000 H   0  0  0  0  0  0  0  0  0  0  0  0
    1.4631  -11.4400    0.0000 H   0  0  0  0  0  0  0  0  0  0  0  0
   10.1233   12.5600    0.0000 H   0  0  0  0  0  0  0  0  0  0  0  0
    1.4631  -13.0600    0.0000 H   0  0  0  0  0  0  0  0  0  0  0  0
    2.5369  -13.0600    0.0000 H   0  0  0  0  0  0  0  0  0  0  0  0
   12.0632   12.4400    0.0000 H   0  0  0  0  0  0  0  0  0  0  0  0
   11.5263   13.3700    0.0000 H   0  0  0  0  0  0  0  0  0  0  0  0
  1 16  1  0  0  0  0
  1 20  1  0  0  0  0
  2 18  1  0  0  0  0
  2 25  1  0  0  0  0
  3 17  1  0  0  0  0
  3 34  1  0  0  0  0
  4 19  1  0  0  0  0
  4 37  1  0  0  0  0
  5 31  1  0  0  0  0
  5 35  1  0  0  0  0
  6 30  1  0  0  0  0
  6 42  1  0  0  0  0
  7 25  2  0  0  0  0
  8 31  2  0  0  0  0
  9 34  2  0  0  0  0
 10 37  2  0  0  0  0
 11 42  2  0  0  0  0
 12 13  1  0  0  0  0
 12 16  1  0  0  0  0
 12 47  1  0  0  0  0
 12 48  1  0  0  0  0
 13 17  1  0  0  0  0
 13 49  1  0  0  0  0
 13 50  1  0  0  0  0
 14 15  1  0  0  0  0
 14 18  1  0  0  0  0
 14 51  1  0  0  0  0
 14 52  1  0  0  0  0
 15 19  1  0  0  0  0
 15 53  1  0  0  0  0
 15 54  1  0  0  0  0
 16 55  1  0  0  0  0
 16 56  1  0  0  0  0
 17 57  1  0  0  0  0
 17 58  1  0  0  0  0
 18 59  1  0  0  0  0
 18 60  1  0  0  0  0
 19 61  1  0  0  0  0
 19 62  1  0  0  0  0
 20 21  2  0  0  0  0
 20 22  1  0  0  0  0
 21 26  1  0  0  0  0
 21 63  1  0  0  0  0
 22 27  2  0  0  0  0
 22 64  1  0  0  0  0
 23 26  2  0  0  0  0
 23 27  1  0  0  0  0
 23 31  1  0  0  0  0
 24 25  1  0  0  0  0
 24 28  2  0  0  0  0
 24 29  1  0  0  0  0
 26 65  1  0  0  0  0
 27 66  1  0  0  0  0
 28 32  1  0  0  0  0
 28 67  1  0  0  0  0
 29 33  2  0  0  0  0
 29 68  1  0  0  0  0
 30 32  2  0  0  0  0
 30 33  1  0  0  0  0
 32 69  1  0  0  0  0
 33 70  1  0  0  0  0
 34 43  1  0  0  0  0
 35 38  2  0  0  0  0
 35 39  1  0  0  0  0
 36 40  2  0  0  0  0
 36 41  1  0  0  0  0
 36 42  1  0  0  0  0
 37 44  1  0  0  0  0
 38 40  1  0  0  0  0
 38 71  1  0  0  0  0
 39 41  2  0  0  0  0
 39 72  1  0  0  0  0
 40 73  1  0  0  0  0
 41 74  1  0  0  0  0
 43 45  2  0  0  0  0
 43 75  1  0  0  0  0
 44 46  2  0  0  0  0
 44 76  1  0  0  0  0
 45 77  1  0  0  0  0
 45 78  1  0  0  0  0
 46 79  1  0  0  0  0
 46 80  1  0  0  0  0
M  END
> <PUBCHEM_COMPOUND_CID>
57801928

> <PUBCHEM_COMPOUND_CANONICALIZED>
1

> <PUBCHEM_CACTVS_COMPLEXITY>
1000

> <PUBCHEM_CACTVS_HBOND_ACCEPTOR>
11

> <PUBCHEM_CACTVS_HBOND_DONOR>
0

> <PUBCHEM_CACTVS_ROTATABLE_BOND>
23

> <PUBCHEM_CACTVS_SUBSKEYS>
AAADcfB8PAAAAAAAAAAAAAAAAAAAAAAAAAAwYMAAAAAAAAABUAAAGgAAAAAADASgmAIwDoAABACIAiDSCAACCAAkIAAIiAEGCMgMJjKENRqCOyCkwBEIqYfI7CzOIAAAAAAAAABAAAAAAAAAAAAAAAAAAA==

> <PUBCHEM_IUPAC_OPENEYE_NAME>
[4-[4-(4-prop-2-enoyloxybutoxycarbonyl)phenoxy]carbonylphenyl] 4-(4-prop-2-enoyloxybutoxy)benzoate

> <PUBCHEM_IUPAC_CAS_NAME>
4-[4-(1-oxoprop-2-enoxy)butoxy]benzoic acid [4-[oxo-[4-[oxo-[4-(1-oxoprop-2-enoxy)butoxy]methyl]phenoxy]methyl]phenyl] ester

> <PUBCHEM_IUPAC_NAME_MARKUP>
[4-[4-(4-prop-2-enoyloxybutoxycarbonyl)phenoxy]carbonylphenyl] 4-(4-prop-2-enoyloxybutoxy)benzoate

> <PUBCHEM_IUPAC_NAME>
[4-[4-(4-prop-2-enoyloxybutoxycarbonyl)phenoxy]carbonylphenyl] 4-(4-prop-2-enoyloxybutoxy)benzoate

> <PUBCHEM_IUPAC_SYSTEMATIC_NAME>
[4-[4-(4-prop-2-enoyloxybutoxycarbonyl)phenoxy]carbonylphenyl] 4-(4-prop-2-enoyloxybutoxy)benzoate

> <PUBCHEM_IUPAC_TRADITIONAL_NAME>
4-(4-acryloyloxybutoxy)benzoic acid [4-[4-(4-acryloyloxybutoxycarbonyl)phenoxy]carbonylphenyl] ester

> <PUBCHEM_IUPAC_INCHI>
InChI=1S/C35H34O11/c1-3-31(36)42-22-6-5-21-41-28-15-9-26(10-16-28)34(39)46-30-19-13-27(14-20-30)35(40)45-29-17-11-25(12-18-29)33(38)44-24-8-7-23-43-32(37)4-2/h3-4,9-20H,1-2,5-8,21-24H2

> <PUBCHEM_IUPAC_INCHIKEY>
DNDZAOYPRGVPJV-UHFFFAOYSA-N

> <PUBCHEM_XLOGP3_AA>
7

> <PUBCHEM_EXACT_MASS>
630.21011190

> <PUBCHEM_MOLECULAR_FORMULA>
C35H34O11

> <PUBCHEM_MOLECULAR_WEIGHT>
630.6

> <PUBCHEM_OPENEYE_CAN_SMILES>
C=CC(=O)OCCCCOC1=CC=C(C=C1)C(=O)OC2=CC=C(C=C2)C(=O)OC3=CC=C(C=C3)C(=O)OCCCCOC(=O)C=C

> <PUBCHEM_OPENEYE_ISO_SMILES>
C=CC(=O)OCCCCOC1=CC=C(C=C1)C(=O)OC2=CC=C(C=C2)C(=O)OC3=CC=C(C=C3)C(=O)OCCCCOC(=O)C=C

> <PUBCHEM_CACTVS_TPSA>
141

> <PUBCHEM_MONOISOTOPIC_WEIGHT>
630.21011190

> <PUBCHEM_TOTAL_CHARGE>
0

> <PUBCHEM_HEAVY_ATOM_COUNT>
46

> <PUBCHEM_ATOM_DEF_STEREO_COUNT>
0

> <PUBCHEM_ATOM_UDEF_STEREO_COUNT>
0

> <PUBCHEM_BOND_DEF_STEREO_COUNT>
0

> <PUBCHEM_BOND_UDEF_STEREO_COUNT>
0

> <PUBCHEM_ISOTOPIC_ATOM_COUNT>
0

> <PUBCHEM_COMPONENT_COUNT>
1

> <PUBCHEM_CACTVS_TAUTO_COUNT>
-1

> <PUBCHEM_COORDINATE_TYPE>
1
5
255

> <PUBCHEM_BONDANNOTATIONS>
20  21  8
20  22  8
21  26  8
22  27  8
23  26  8
23  27  8
24  28  8
24  29  8
28  32  8
29  33  8
30  32  8
30  33  8
35  38  8
35  39  8
36  40  8
36  41  8
38  40  8
39  41  8

$$$$
