 
  -OEChem-10192104252D

 48 49  0     0  0  0  0  0  0999 V2000
    3.5000    5.6292    0.0000 O   0  0  0  0  0  0  0  0  0  0  0  0
    4.5000   -4.7631    0.0000 O   0  0  0  0  0  0  0  0  0  0  0  0
    3.0000   -5.6292    0.0000 O   0  0  0  0  0  0  0  0  0  0  0  0
    3.5000    3.8971    0.0000 C   0  0  0  0  0  0  0  0  0  0  0  0
    3.0000   -3.8971    0.0000 C   0  0  0  0  0  0  0  0  0  0  0  0
    4.3660    3.3971    0.0000 C   0  0  0  0  0  0  0  0  0  0  0  0
    4.3660    4.3971    0.0000 C   0  0  0  0  0  0  0  0  0  0  0  0
    2.1340   -4.3971    0.0000 C   0  0  0  0  0  0  0  0  0  0  0  0
    2.1340   -3.3971    0.0000 C   0  0  0  0  0  0  0  0  0  0  0  0
    3.0000    3.0311    0.0000 C   0  0  0  0  0  0  0  0  0  0  0  0
    3.5000   -3.0311    0.0000 C   0  0  0  0  0  0  0  0  0  0  0  0
    3.0000    4.7631    0.0000 C   0  0  0  0  0  0  0  0  0  0  0  0
    3.5000    2.1651    0.0000 C   0  0  0  0  0  0  0  0  0  0  0  0
    3.0000   -2.1651    0.0000 C   0  0  0  0  0  0  0  0  0  0  0  0
    3.5000   -4.7631    0.0000 C   0  0  0  0  0  0  0  0  0  0  0  0
    3.0000    1.2990    0.0000 C   0  0  0  0  0  0  0  0  0  0  0  0
    3.5000   -1.2990    0.0000 C   0  0  0  0  0  0  0  0  0  0  0  0
    3.5000    0.4330    0.0000 C   0  0  0  0  0  0  0  0  0  0  0  0
    3.0000   -0.4330    0.0000 C   0  0  0  0  0  0  0  0  0  0  0  0
    2.0000    4.7631    0.0000 C   0  0  0  0  0  0  0  0  0  0  0  0
    4.1540    2.8145    0.0000 H   0  0  0  0  0  0  0  0  0  0  0  0
    4.9766    3.2894    0.0000 H   0  0  0  0  0  0  0  0  0  0  0  0
    4.9766    4.5048    0.0000 H   0  0  0  0  0  0  0  0  0  0  0  0
    4.1540    4.9797    0.0000 H   0  0  0  0  0  0  0  0  0  0  0  0
    1.5234   -4.5048    0.0000 H   0  0  0  0  0  0  0  0  0  0  0  0
    2.3460   -4.9797    0.0000 H   0  0  0  0  0  0  0  0  0  0  0  0
    2.3460   -2.8145    0.0000 H   0  0  0  0  0  0  0  0  0  0  0  0
    1.5234   -3.2894    0.0000 H   0  0  0  0  0  0  0  0  0  0  0  0
    2.5250    3.4296    0.0000 H   0  0  0  0  0  0  0  0  0  0  0  0
    2.5250    2.6326    0.0000 H   0  0  0  0  0  0  0  0  0  0  0  0
    3.9750   -3.4296    0.0000 H   0  0  0  0  0  0  0  0  0  0  0  0
    3.9750   -2.6326    0.0000 H   0  0  0  0  0  0  0  0  0  0  0  0
    3.9750    1.7665    0.0000 H   0  0  0  0  0  0  0  0  0  0  0  0
    3.9750    2.5636    0.0000 H   0  0  0  0  0  0  0  0  0  0  0  0
    2.5250   -1.7665    0.0000 H   0  0  0  0  0  0  0  0  0  0  0  0
    2.5250   -2.5636    0.0000 H   0  0  0  0  0  0  0  0  0  0  0  0
    2.5250    1.6976    0.0000 H   0  0  0  0  0  0  0  0  0  0  0  0
    2.5250    0.9005    0.0000 H   0  0  0  0  0  0  0  0  0  0  0  0
    3.9750   -1.6976    0.0000 H   0  0  0  0  0  0  0  0  0  0  0  0
    3.9750   -0.9005    0.0000 H   0  0  0  0  0  0  0  0  0  0  0  0
    3.9750    0.0345    0.0000 H   0  0  0  0  0  0  0  0  0  0  0  0
    3.9750    0.8315    0.0000 H   0  0  0  0  0  0  0  0  0  0  0  0
    2.5250   -0.0345    0.0000 H   0  0  0  0  0  0  0  0  0  0  0  0
    2.5250   -0.8315    0.0000 H   0  0  0  0  0  0  0  0  0  0  0  0
    2.0000    5.3831    0.0000 H   0  0  0  0  0  0  0  0  0  0  0  0
    1.3800    4.7631    0.0000 H   0  0  0  0  0  0  0  0  0  0  0  0
    2.0000    4.1431    0.0000 H   0  0  0  0  0  0  0  0  0  0  0  0
    4.8100   -5.3001    0.0000 H   0  0  0  0  0  0  0  0  0  0  0  0
  1 12  2  0  0  0  0
  2 15  1  0  0  0  0
  2 48  1  0  0  0  0
  3 15  2  0  0  0  0
  4  6  1  0  0  0  0
  4  7  1  0  0  0  0
  4 10  1  0  0  0  0
  4 12  1  0  0  0  0
  5  8  1  0  0  0  0
  5  9  1  0  0  0  0
  5 11  1  0  0  0  0
  5 15  1  0  0  0  0
  6  7  1  0  0  0  0
  6 21  1  0  0  0  0
  6 22  1  0  0  0  0
  7 23  1  0  0  0  0
  7 24  1  0  0  0  0
  8  9  1  0  0  0  0
  8 25  1  0  0  0  0
  8 26  1  0  0  0  0
  9 27  1  0  0  0  0
  9 28  1  0  0  0  0
 10 13  1  0  0  0  0
 10 29  1  0  0  0  0
 10 30  1  0  0  0  0
 11 14  1  0  0  0  0
 11 31  1  0  0  0  0
 11 32  1  0  0  0  0
 12 20  1  0  0  0  0
 13 16  1  0  0  0  0
 13 33  1  0  0  0  0
 13 34  1  0  0  0  0
 14 17  1  0  0  0  0
 14 35  1  0  0  0  0
 14 36  1  0  0  0  0
 16 18  1  0  0  0  0
 16 37  1  0  0  0  0
 16 38  1  0  0  0  0
 17 19  1  0  0  0  0
 17 39  1  0  0  0  0
 17 40  1  0  0  0  0
 18 19  1  0  0  0  0
 18 41  1  0  0  0  0
 18 42  1  0  0  0  0
 19 43  1  0  0  0  0
 19 44  1  0  0  0  0
 20 45  1  0  0  0  0
 20 46  1  0  0  0  0
 20 47  1  0  0  0  0
M  END
> <PUBCHEM_COMPOUND_CID>
66803753

> <PUBCHEM_COMPOUND_CANONICALIZED>
1

> <PUBCHEM_CACTVS_COMPLEXITY>
364

> <PUBCHEM_CACTVS_HBOND_ACCEPTOR>
3

> <PUBCHEM_CACTVS_HBOND_DONOR>
1

> <PUBCHEM_CACTVS_ROTATABLE_BOND>
11

> <PUBCHEM_CACTVS_SUBSKEYS>
AAADceB4MAAAAAAAAAAAAAAAGDAAAAAAAAAAAAAAAAAAAAAAAAAAGgAACAAADgSAgAACCAAAAgAIAICQCAAAAAAAAAAAAAEAAAAAABIAAAAAQAAEAAAAAAGIyOCPAAAAAAAAAAAAAAAAAAAAAAAAAAAAAA==

> <PUBCHEM_IUPAC_OPENEYE_NAME>
1-[8-(1-acetylcyclopropyl)octyl]cyclopropanecarboxylic acid

> <PUBCHEM_IUPAC_CAS_NAME>
1-[8-(1-acetylcyclopropyl)octyl]-1-cyclopropanecarboxylic acid

> <PUBCHEM_IUPAC_NAME_MARKUP>
1-[8-(1-acetylcyclopropyl)octyl]cyclopropane-1-carboxylic acid

> <PUBCHEM_IUPAC_NAME>
1-[8-(1-acetylcyclopropyl)octyl]cyclopropane-1-carboxylic acid

> <PUBCHEM_IUPAC_SYSTEMATIC_NAME>
1-[8-(1-ethanoylcyclopropyl)octyl]cyclopropane-1-carboxylic acid

> <PUBCHEM_IUPAC_TRADITIONAL_NAME>
1-[8-(1-acetylcyclopropyl)octyl]cyclopropanecarboxylic acid

> <PUBCHEM_IUPAC_INCHI>
InChI=1S/C17H28O3/c1-14(18)16(10-11-16)8-6-4-2-3-5-7-9-17(12-13-17)15(19)20/h2-13H2,1H3,(H,19,20)

> <PUBCHEM_IUPAC_INCHIKEY>
GLGQQDCZIBMPKW-UHFFFAOYSA-N

> <PUBCHEM_XLOGP3_AA>
4

> <PUBCHEM_EXACT_MASS>
280.20384475

> <PUBCHEM_MOLECULAR_FORMULA>
C17H28O3

> <PUBCHEM_MOLECULAR_WEIGHT>
280.4

> <PUBCHEM_OPENEYE_CAN_SMILES>
CC(=O)C1(CC1)CCCCCCCCC2(CC2)C(=O)O

> <PUBCHEM_OPENEYE_ISO_SMILES>
CC(=O)C1(CC1)CCCCCCCCC2(CC2)C(=O)O

> <PUBCHEM_CACTVS_TPSA>
54.4

> <PUBCHEM_MONOISOTOPIC_WEIGHT>
280.20384475

> <PUBCHEM_TOTAL_CHARGE>
0

> <PUBCHEM_HEAVY_ATOM_COUNT>
20

> <PUBCHEM_ATOM_DEF_STEREO_COUNT>
0

> <PUBCHEM_ATOM_UDEF_STEREO_COUNT>
0

> <PUBCHEM_BOND_DEF_STEREO_COUNT>
0

> <PUBCHEM_BOND_UDEF_STEREO_COUNT>
0

> <PUBCHEM_ISOTOPIC_ATOM_COUNT>
0

> <PUBCHEM_COMPONENT_COUNT>
1

> <PUBCHEM_CACTVS_TAUTO_COUNT>
-1

> <PUBCHEM_COORDINATE_TYPE>
1
5
255

$$$$
