 
  -OEChem-10192103392D

 54 55  0     1  0  0  0  0  0999 V2000
    5.4641   -0.3100    0.0000 O   0  0  0  0  0  0  0  0  0  0  0  0
    5.4641   -3.3100    0.0000 O   0  0  0  0  0  0  0  0  0  0  0  0
    7.1962   -2.3100    0.0000 O   0  0  0  0  0  0  0  0  0  0  0  0
    3.7320   -2.3100    0.0000 O   0  0  0  0  0  0  0  0  0  0  0  0
    7.1962   -0.3100    0.0000 O   0  0  0  0  0  0  0  0  0  0  0  0
    3.7320    0.6900    0.0000 O   0  0  0  0  0  0  0  0  0  0  0  0
    3.7320   -3.3100    0.0000 O   0  0  0  0  0  0  0  0  0  0  0  0
    8.0622   -0.8100    0.0000 O   0  0  0  0  0  0  0  0  0  0  0  0
    2.8660    2.1900    0.0000 O   0  0  0  0  0  0  0  0  0  0  0  0
    8.9282    2.6900    0.0000 O   0  0  0  0  0  0  0  0  0  0  0  0
    5.4641    2.6900    0.0000 O   0  0  0  0  0  0  0  0  0  0  0  0
    8.0622    4.1900    0.0000 O   0  0  0  0  0  0  0  0  0  0  0  0
    6.3301    4.1900    0.0000 O   0  0  0  0  0  0  0  0  0  0  0  0
    5.4641   -2.3100    0.0000 C   0  0  1  0  0  0  0  0  0  0  0  0
    4.5981   -1.8100    0.0000 C   0  0  1  0  0  0  0  0  0  0  0  0
    6.3301   -1.8100    0.0000 C   0  0  2  0  0  0  0  0  0  0  0  0
    4.5981   -0.8100    0.0000 C   0  0  1  0  0  0  0  0  0  0  0  0
    6.3301   -0.8100    0.0000 C   0  0  1  0  0  0  0  0  0  0  0  0
    3.7320   -0.3100    0.0000 C   0  0  0  0  0  0  0  0  0  0  0  0
    7.1962    0.6900    0.0000 C   0  0  0  0  0  0  0  0  0  0  0  0
    4.5981   -3.8100    0.0000 C   0  0  0  0  0  0  0  0  0  0  0  0
    8.0622   -1.8100    0.0000 C   0  0  0  0  0  0  0  0  0  0  0  0
    6.3301    1.1900    0.0000 C   0  0  0  0  0  0  0  0  0  0  0  0
    8.0622    1.1900    0.0000 C   0  0  0  0  0  0  0  0  0  0  0  0
    4.5981   -4.8100    0.0000 C   0  0  0  0  0  0  0  0  0  0  0  0
    2.8660    1.1900    0.0000 C   0  0  0  0  0  0  0  0  0  0  0  0
    8.9282   -2.3100    0.0000 C   0  0  0  0  0  0  0  0  0  0  0  0
    8.0622    2.1900    0.0000 C   0  0  0  0  0  0  0  0  0  0  0  0
    6.3301    2.1900    0.0000 C   0  0  0  0  0  0  0  0  0  0  0  0
    7.1962    2.6900    0.0000 C   0  0  0  0  0  0  0  0  0  0  0  0
    2.0000    0.6900    0.0000 C   0  0  0  0  0  0  0  0  0  0  0  0
    7.1962    3.6900    0.0000 C   0  0  0  0  0  0  0  0  0  0  0  0
    4.9272   -2.6200    0.0000 H   0  0  0  0  0  0  0  0  0  0  0  0
    4.5981   -2.4300    0.0000 H   0  0  0  0  0  0  0  0  0  0  0  0
    6.3301   -2.4300    0.0000 H   0  0  0  0  0  0  0  0  0  0  0  0
    4.5981   -0.1900    0.0000 H   0  0  0  0  0  0  0  0  0  0  0  0
    6.3301   -0.1900    0.0000 H   0  0  0  0  0  0  0  0  0  0  0  0
    3.1215   -0.2023    0.0000 H   0  0  0  0  0  0  0  0  0  0  0  0
    3.5200   -0.8926    0.0000 H   0  0  0  0  0  0  0  0  0  0  0  0
    3.1951   -2.0000    0.0000 H   0  0  0  0  0  0  0  0  0  0  0  0
    5.7932    0.8800    0.0000 H   0  0  0  0  0  0  0  0  0  0  0  0
    8.5991    0.8800    0.0000 H   0  0  0  0  0  0  0  0  0  0  0  0
    3.9781   -4.8100    0.0000 H   0  0  0  0  0  0  0  0  0  0  0  0
    4.5981   -5.4300    0.0000 H   0  0  0  0  0  0  0  0  0  0  0  0
    5.2181   -4.8100    0.0000 H   0  0  0  0  0  0  0  0  0  0  0  0
    8.6182   -2.8469    0.0000 H   0  0  0  0  0  0  0  0  0  0  0  0
    9.4651   -2.6200    0.0000 H   0  0  0  0  0  0  0  0  0  0  0  0
    9.2382   -1.7731    0.0000 H   0  0  0  0  0  0  0  0  0  0  0  0
    1.6900    1.2269    0.0000 H   0  0  0  0  0  0  0  0  0  0  0  0
    1.4631    0.3800    0.0000 H   0  0  0  0  0  0  0  0  0  0  0  0
    2.3100    0.1531    0.0000 H   0  0  0  0  0  0  0  0  0  0  0  0
    9.4651    2.3800    0.0000 H   0  0  0  0  0  0  0  0  0  0  0  0
    4.9272    2.3800    0.0000 H   0  0  0  0  0  0  0  0  0  0  0  0
    8.0622    4.8100    0.0000 H   0  0  0  0  0  0  0  0  0  0  0  0
  1 17  1  0  0  0  0
  1 18  1  0  0  0  0
 14  2  1  1  0  0  0
  2 21  1  0  0  0  0
 16  3  1  6  0  0  0
  3 22  1  0  0  0  0
 15  4  1  6  0  0  0
  4 40  1  0  0  0  0
 18  5  1  1  0  0  0
  5 20  1  0  0  0  0
  6 19  1  0  0  0  0
  6 26  1  0  0  0  0
  7 21  2  0  0  0  0
  8 22  2  0  0  0  0
  9 26  2  0  0  0  0
 10 28  1  0  0  0  0
 10 52  1  0  0  0  0
 11 29  1  0  0  0  0
 11 53  1  0  0  0  0
 12 32  1  0  0  0  0
 12 54  1  0  0  0  0
 13 32  2  0  0  0  0
 14 15  1  0  0  0  0
 14 16  1  0  0  0  0
 14 33  1  0  0  0  0
 15 17  1  0  0  0  0
 15 34  1  0  0  0  0
 16 18  1  0  0  0  0
 16 35  1  0  0  0  0
 17 19  1  1  0  0  0
 17 36  1  0  0  0  0
 18 37  1  0  0  0  0
 19 38  1  0  0  0  0
 19 39  1  0  0  0  0
 20 23  2  0  0  0  0
 20 24  1  0  0  0  0
 21 25  1  0  0  0  0
 22 27  1  0  0  0  0
 23 29  1  0  0  0  0
 23 41  1  0  0  0  0
 24 28  2  0  0  0  0
 24 42  1  0  0  0  0
 25 43  1  0  0  0  0
 25 44  1  0  0  0  0
 25 45  1  0  0  0  0
 26 31  1  0  0  0  0
 27 46  1  0  0  0  0
 27 47  1  0  0  0  0
 27 48  1  0  0  0  0
 28 30  1  0  0  0  0
 29 30  2  0  0  0  0
 30 32  1  0  0  0  0
 31 49  1  0  0  0  0
 31 50  1  0  0  0  0
 31 51  1  0  0  0  0
M  END
> <PUBCHEM_COMPOUND_CID>
100998031

> <PUBCHEM_COMPOUND_CANONICALIZED>
1

> <PUBCHEM_CACTVS_COMPLEXITY>
697

> <PUBCHEM_CACTVS_HBOND_ACCEPTOR>
13

> <PUBCHEM_CACTVS_HBOND_DONOR>
4

> <PUBCHEM_CACTVS_ROTATABLE_BOND>
10

> <PUBCHEM_CACTVS_SUBSKEYS>
AAADceB4PAAAAAAAAAAAAAAAAAAAAAAAAAA0QAAAAAAAAAABAAAAGgAACAAADBSwmAMyDoAABgCIAiDSCAACCAAkIAAAiAEGCMgdNzaGNRqieWCl4BUPuQfI7CzOIAAACAAIAABAAAAQABAAAAAAAAAAAA==

> <PUBCHEM_IUPAC_OPENEYE_NAME>
4-[(2S,3R,4S,5R,6R)-3,4-diacetoxy-6-(acetoxymethyl)-5-hydroxy-tetrahydropyran-2-yl]oxy-2,6-dihydroxy-benzoic acid

> <PUBCHEM_IUPAC_CAS_NAME>
4-[[(2S,3R,4S,5R,6R)-3,4-diacetyloxy-6-(acetyloxymethyl)-5-hydroxy-2-oxanyl]oxy]-2,6-dihydroxybenzoic acid

> <PUBCHEM_IUPAC_NAME_MARKUP>
4-[(2<I>S</I>,3<I>R</I>,4<I>S</I>,5<I>R</I>,6<I>R</I>)-3,4-diacetyloxy-6-(acetyloxymethyl)-5-hydroxyoxan-2-yl]oxy-2,6-dihydroxybenzoic acid

> <PUBCHEM_IUPAC_NAME>
4-[(2S,3R,4S,5R,6R)-3,4-diacetyloxy-6-(acetyloxymethyl)-5-hydroxyoxan-2-yl]oxy-2,6-dihydroxybenzoic acid

> <PUBCHEM_IUPAC_SYSTEMATIC_NAME>
4-[(2S,3R,4S,5R,6R)-3,4-diacetyloxy-6-(acetyloxymethyl)-5-oxidanyl-oxan-2-yl]oxy-2,6-bis(oxidanyl)benzoic acid

> <PUBCHEM_IUPAC_TRADITIONAL_NAME>
4-[(2S,3R,4S,5R,6R)-3,4-diacetoxy-6-(acetoxymethyl)-5-hydroxy-tetrahydropyran-2-yl]oxy-2,6-dihydroxy-benzoic acid

> <PUBCHEM_IUPAC_INCHI>
InChI=1S/C19H22O13/c1-7(20)28-6-13-15(25)16(29-8(2)21)17(30-9(3)22)19(32-13)31-10-4-11(23)14(18(26)27)12(24)5-10/h4-5,13,15-17,19,23-25H,6H2,1-3H3,(H,26,27)/t13-,15-,16+,17-,19-/m1/s1

> <PUBCHEM_IUPAC_INCHIKEY>
BQGVDLIJZKWSME-WIMVFMHDSA-N

> <PUBCHEM_XLOGP3_AA>
0.9

> <PUBCHEM_EXACT_MASS>
458.10604075

> <PUBCHEM_MOLECULAR_FORMULA>
C19H22O13

> <PUBCHEM_MOLECULAR_WEIGHT>
458.4

> <PUBCHEM_OPENEYE_CAN_SMILES>
CC(=O)OCC1C(C(C(C(O1)OC2=CC(=C(C(=C2)O)C(=O)O)O)OC(=O)C)OC(=O)C)O

> <PUBCHEM_OPENEYE_ISO_SMILES>
CC(=O)OC[C@@H]1[C@H]([C@@H]([C@H]([C@@H](O1)OC2=CC(=C(C(=C2)O)C(=O)O)O)OC(=O)C)OC(=O)C)O

> <PUBCHEM_CACTVS_TPSA>
195

> <PUBCHEM_MONOISOTOPIC_WEIGHT>
458.10604075

> <PUBCHEM_TOTAL_CHARGE>
0

> <PUBCHEM_HEAVY_ATOM_COUNT>
32

> <PUBCHEM_ATOM_DEF_STEREO_COUNT>
5

> <PUBCHEM_ATOM_UDEF_STEREO_COUNT>
0

> <PUBCHEM_BOND_DEF_STEREO_COUNT>
0

> <PUBCHEM_BOND_UDEF_STEREO_COUNT>
0

> <PUBCHEM_ISOTOPIC_ATOM_COUNT>
0

> <PUBCHEM_COMPONENT_COUNT>
1

> <PUBCHEM_CACTVS_TAUTO_COUNT>
-1

> <PUBCHEM_COORDINATE_TYPE>
1
5
255

> <PUBCHEM_BONDANNOTATIONS>
17  19  5
14  2  5
20  23  8
20  24  8
23  29  8
24  28  8
28  30  8
29  30  8
16  3  6
15  4  6
18  5  5

$$$$
