 
  -OEChem-10192104282D

 98106  0     1  0  0  0  0  0999 V2000
    4.3177    1.1220    0.0000 O   0  0  0  0  0  0  0  0  0  0  0  0
   16.0834    0.5335    0.0000 O   0  0  0  0  0  0  0  0  0  0  0  0
    5.7899    1.8117    0.0000 O   0  0  0  0  0  0  0  0  0  0  0  0
   15.9445   -1.0864    0.0000 O   0  0  0  0  0  0  0  0  0  0  0  0
    6.4870    0.3809    0.0000 O   0  0  0  0  0  0  0  0  0  0  0  0
   14.3569   -0.9747    0.0000 O   0  0  0  0  0  0  0  0  0  0  0  0
    4.5402    2.0969    0.0000 O   0  0  0  0  0  0  0  0  0  0  0  0
   16.8164   -0.1467    0.0000 O   0  0  0  0  0  0  0  0  0  0  0  0
    4.6664    0.4029    0.0000 C   0  0  2  0  0  0  0  0  0  0  0  0
   15.2862    0.5910    0.0000 C   0  0  2  0  0  0  0  0  0  0  0  0
    3.7655    0.8368    0.0000 C   0  0  2  0  0  0  0  0  0  0  0  0
   16.1125    1.1543    0.0000 C   0  0  2  0  0  0  0  0  0  0  0  0
    4.7603   -0.6345    0.0000 C   0  0  1  0  0  0  0  0  0  0  0  0
   14.3409    1.0284    0.0000 C   0  0  1  0  0  0  0  0  0  0  0  0
    2.8959    0.2633    0.0000 C   0  0  1  0  0  0  0  0  0  0  0  0
   16.0506    2.1941    0.0000 C   0  0  1  0  0  0  0  0  0  0  0  0
    5.5674    0.8368    0.0000 C   0  0  1  0  0  0  0  0  0  0  0  0
   15.2115   -0.4062    0.0000 C   0  0  1  0  0  0  0  0  0  0  0  0
    3.9042   -1.2279    0.0000 C   0  0  0  0  0  0  0  0  0  0  0  0
   14.2550    2.0665    0.0000 C   0  0  0  0  0  0  0  0  0  0  0  0
    5.6389   -1.1651    0.0000 C   0  0  2  0  0  0  0  0  0  0  0  0
   13.4420    0.5329    0.0000 C   0  0  2  0  0  0  0  0  0  0  0  0
    3.5430    1.8117    0.0000 C   0  0  0  0  0  0  0  0  0  0  0  0
   17.0680    0.8596    0.0000 C   0  0  0  0  0  0  0  0  0  0  0  0
    2.9657   -0.7759    0.0000 C   0  0  0  0  0  0  0  0  0  0  0  0
   15.1157    2.6533    0.0000 C   0  0  0  0  0  0  0  0  0  0  0  0
    5.1664    2.5935    0.0000 C   0  0  2  0  0  0  0  0  0  0  0  0
   16.9334   -0.9373    0.0000 C   0  0  2  0  0  0  0  0  0  0  0  0
    4.1664    2.5935    0.0000 C   0  0  0  0  0  0  0  0  0  0  0  0
   17.4334   -0.0713    0.0000 C   0  0  0  0  0  0  0  0  0  0  0  0
    6.5237   -0.6448    0.0000 C   0  0  3  0  0  0  0  0  0  0  0  0
   13.4502   -0.4935    0.0000 C   0  0  3  0  0  0  0  0  0  0  0  0
    2.0000    0.7076    0.0000 C   0  0  0  0  0  0  0  0  0  0  0  0
   16.8833    2.7479    0.0000 C   0  0  0  0  0  0  0  0  0  0  0  0
    5.6330   -2.1651    0.0000 C   0  0  0  0  0  0  0  0  0  0  0  0
   12.5790    1.0379    0.0000 C   0  0  0  0  0  0  0  0  0  0  0  0
    5.3890    3.5685    0.0000 C   0  0  0  0  0  0  0  0  0  0  0  0
   17.6664   -1.6175    0.0000 C   0  0  0  0  0  0  0  0  0  0  0  0
    7.4004   -1.1258    0.0000 C   0  0  0  0  0  0  0  0  0  0  0  0
   12.5953   -1.0123    0.0000 C   0  0  0  0  0  0  0  0  0  0  0  0
    8.2772   -1.6068    0.0000 C   0  0  0  0  0  0  0  0  0  0  0  0
   11.7404   -1.5311    0.0000 C   0  0  0  0  0  0  0  0  0  0  0  0
    9.1539   -2.0877    0.0000 C   0  0  0  0  0  0  0  0  0  0  0  0
   10.8855   -2.0499    0.0000 C   0  0  0  0  0  0  0  0  0  0  0  0
   10.0088   -1.5690    0.0000 C   0  0  0  0  0  0  0  0  0  0  0  0
    9.1757   -3.0875    0.0000 C   0  0  0  0  0  0  0  0  0  0  0  0
   10.9074   -3.0497    0.0000 C   0  0  0  0  0  0  0  0  0  0  0  0
   10.0525   -3.5685    0.0000 C   0  0  0  0  0  0  0  0  0  0  0  0
    2.9996    1.2056    0.0000 H   0  0  0  0  0  0  0  0  0  0  0  0
   16.8148    1.6332    0.0000 H   0  0  0  0  0  0  0  0  0  0  0  0
    4.7870   -1.4841    0.0000 H   0  0  0  0  0  0  0  0  0  0  0  0
   15.0376    1.5154    0.0000 H   0  0  0  0  0  0  0  0  0  0  0  0
    2.3803   -0.0810    0.0000 H   0  0  0  0  0  0  0  0  0  0  0  0
   16.6056    1.9176    0.0000 H   0  0  0  0  0  0  0  0  0  0  0  0
    5.8780    0.0455    0.0000 H   0  0  0  0  0  0  0  0  0  0  0  0
   14.3710   -0.2794    0.0000 H   0  0  0  0  0  0  0  0  0  0  0  0
    3.5436   -1.7322    0.0000 H   0  0  0  0  0  0  0  0  0  0  0  0
    4.3394   -1.6695    0.0000 H   0  0  0  0  0  0  0  0  0  0  0  0
   13.9986    2.6310    0.0000 H   0  0  0  0  0  0  0  0  0  0  0  0
   13.6550    1.9104    0.0000 H   0  0  0  0  0  0  0  0  0  0  0  0
    6.1762   -1.4746    0.0000 H   0  0  0  0  0  0  0  0  0  0  0  0
   13.4500    1.1528    0.0000 H   0  0  0  0  0  0  0  0  0  0  0  0
    3.1564    2.2964    0.0000 H   0  0  0  0  0  0  0  0  0  0  0  0
    2.9844    1.5427    0.0000 H   0  0  0  0  0  0  0  0  0  0  0  0
   17.6811    0.9520    0.0000 H   0  0  0  0  0  0  0  0  0  0  0  0
   17.1144    1.4779    0.0000 H   0  0  0  0  0  0  0  0  0  0  0  0
    2.3491   -0.7110    0.0000 H   0  0  0  0  0  0  0  0  0  0  0  0
    2.7963   -1.3723    0.0000 H   0  0  0  0  0  0  0  0  0  0  0  0
   15.4802    3.1548    0.0000 H   0  0  0  0  0  0  0  0  0  0  0  0
   14.6839    3.0982    0.0000 H   0  0  0  0  0  0  0  0  0  0  0  0
    4.3044    3.1980    0.0000 H   0  0  0  0  0  0  0  0  0  0  0  0
    3.6078    2.8626    0.0000 H   0  0  0  0  0  0  0  0  0  0  0  0
   17.8879   -0.4930    0.0000 H   0  0  0  0  0  0  0  0  0  0  0  0
   17.9456    0.2780    0.0000 H   0  0  0  0  0  0  0  0  0  0  0  0
    7.0515   -0.3195    0.0000 H   0  0  0  0  0  0  0  0  0  0  0  0
   13.4681   -1.1133    0.0000 H   0  0  0  0  0  0  0  0  0  0  0  0
    2.2755    1.2631    0.0000 H   0  0  0  0  0  0  0  0  0  0  0  0
    1.4446    0.9831    0.0000 H   0  0  0  0  0  0  0  0  0  0  0  0
    1.7246    0.1522    0.0000 H   0  0  0  0  0  0  0  0  0  0  0  0
   17.2267    2.2316    0.0000 H   0  0  0  0  0  0  0  0  0  0  0  0
   17.3996    3.0912    0.0000 H   0  0  0  0  0  0  0  0  0  0  0  0
   16.5400    3.2641    0.0000 H   0  0  0  0  0  0  0  0  0  0  0  0
    5.0130   -2.1615    0.0000 H   0  0  0  0  0  0  0  0  0  0  0  0
    5.6294   -2.7851    0.0000 H   0  0  0  0  0  0  0  0  0  0  0  0
    6.2530   -2.1688    0.0000 H   0  0  0  0  0  0  0  0  0  0  0  0
   12.8921    1.5730    0.0000 H   0  0  0  0  0  0  0  0  0  0  0  0
   12.0438    1.3511    0.0000 H   0  0  0  0  0  0  0  0  0  0  0  0
   12.2658    0.5028    0.0000 H   0  0  0  0  0  0  0  0  0  0  0  0
    5.9934    3.4305    0.0000 H   0  0  0  0  0  0  0  0  0  0  0  0
    5.5269    4.1729    0.0000 H   0  0  0  0  0  0  0  0  0  0  0  0
    4.7845    3.7064    0.0000 H   0  0  0  0  0  0  0  0  0  0  0  0
   17.2447   -2.0720    0.0000 H   0  0  0  0  0  0  0  0  0  0  0  0
   18.1209   -2.0392    0.0000 H   0  0  0  0  0  0  0  0  0  0  0  0
   18.0881   -1.1630    0.0000 H   0  0  0  0  0  0  0  0  0  0  0  0
    9.9953   -0.9491    0.0000 H   0  0  0  0  0  0  0  0  0  0  0  0
    8.6457   -3.4092    0.0000 H   0  0  0  0  0  0  0  0  0  0  0  0
   11.4510   -3.3479    0.0000 H   0  0  0  0  0  0  0  0  0  0  0  0
   10.0660   -4.1883    0.0000 H   0  0  0  0  0  0  0  0  0  0  0  0
  1  7  1  0  0  0  0
  9  1  1  1  0  0  0
  2  8  1  0  0  0  0
 10  2  1  1  0  0  0
  3 17  1  0  0  0  0
  3 27  1  0  0  0  0
  4 18  1  0  0  0  0
  4 28  1  0  0  0  0
  5 17  1  0  0  0  0
  5 31  1  0  0  0  0
  6 18  1  0  0  0  0
  6 32  1  0  0  0  0
  7 27  1  0  0  0  0
  8 28  1  0  0  0  0
  9 11  1  0  0  0  0
  9 13  1  0  0  0  0
  9 17  1  0  0  0  0
 10 12  1  0  0  0  0
 10 14  1  0  0  0  0
 10 18  1  0  0  0  0
 11 15  1  0  0  0  0
 11 23  1  0  0  0  0
 11 49  1  1  0  0  0
 12 16  1  0  0  0  0
 12 24  1  0  0  0  0
 12 50  1  1  0  0  0
 13 19  1  0  0  0  0
 13 21  1  0  0  0  0
 13 51  1  1  0  0  0
 14 20  1  0  0  0  0
 14 22  1  0  0  0  0
 14 52  1  1  0  0  0
 15 25  1  0  0  0  0
 15 33  1  1  0  0  0
 15 53  1  0  0  0  0
 16 26  1  0  0  0  0
 16 34  1  1  0  0  0
 16 54  1  0  0  0  0
 17 55  1  6  0  0  0
 18 56  1  6  0  0  0
 19 25  1  0  0  0  0
 19 57  1  0  0  0  0
 19 58  1  0  0  0  0
 20 26  1  0  0  0  0
 20 59  1  0  0  0  0
 20 60  1  0  0  0  0
 21 31  1  0  0  0  0
 21 35  1  6  0  0  0
 21 61  1  0  0  0  0
 22 32  1  0  0  0  0
 22 36  1  6  0  0  0
 22 62  1  0  0  0  0
 23 29  1  0  0  0  0
 23 63  1  0  0  0  0
 23 64  1  0  0  0  0
 24 30  1  0  0  0  0
 24 65  1  0  0  0  0
 24 66  1  0  0  0  0
 25 67  1  0  0  0  0
 25 68  1  0  0  0  0
 26 69  1  0  0  0  0
 26 70  1  0  0  0  0
 27 29  1  0  0  0  0
 27 37  1  1  0  0  0
 28 30  1  0  0  0  0
 28 38  1  1  0  0  0
 29 71  1  0  0  0  0
 29 72  1  0  0  0  0
 30 73  1  0  0  0  0
 30 74  1  0  0  0  0
 31 39  1  0  0  0  0
 31 75  1  0  0  0  0
 32 40  1  0  0  0  0
 32 76  1  0  0  0  0
 33 77  1  0  0  0  0
 33 78  1  0  0  0  0
 33 79  1  0  0  0  0
 34 80  1  0  0  0  0
 34 81  1  0  0  0  0
 34 82  1  0  0  0  0
 35 83  1  0  0  0  0
 35 84  1  0  0  0  0
 35 85  1  0  0  0  0
 36 86  1  0  0  0  0
 36 87  1  0  0  0  0
 36 88  1  0  0  0  0
 37 89  1  0  0  0  0
 37 90  1  0  0  0  0
 37 91  1  0  0  0  0
 38 92  1  0  0  0  0
 38 93  1  0  0  0  0
 38 94  1  0  0  0  0
 39 41  3  0  0  0  0
 40 42  3  0  0  0  0
 41 43  1  0  0  0  0
 42 44  1  0  0  0  0
 43 45  2  0  0  0  0
 43 46  1  0  0  0  0
 44 45  1  0  0  0  0
 44 47  2  0  0  0  0
 45 95  1  0  0  0  0
 46 48  2  0  0  0  0
 46 96  1  0  0  0  0
 47 48  1  0  0  0  0
 47 97  1  0  0  0  0
 48 98  1  0  0  0  0
M  END
> <PUBCHEM_COMPOUND_CID>
10604374

> <PUBCHEM_COMPOUND_CANONICALIZED>
1

> <PUBCHEM_CACTVS_COMPLEXITY>
1320

> <PUBCHEM_CACTVS_HBOND_ACCEPTOR>
8

> <PUBCHEM_CACTVS_HBOND_DONOR>
0

> <PUBCHEM_CACTVS_ROTATABLE_BOND>
2

> <PUBCHEM_CACTVS_SUBSKEYS>
AAADcfB8PAAAAAAAAAAAAAAAAAAAAAAAAAA0aNEiBIkAAACRAAAAGgAABAAADVSwmAMyCIAABADAEiBCAAgCAAAgAAAIiAAAAIgZICKAERCiIAAkgAAOiAfA4PwOgAACAAAAAACAAAYAADAAAAAAAAAAAA==

> <PUBCHEM_IUPAC_OPENEYE_NAME>
(1R,4S,5R,8S,9R,12R,13R)-1,5,9-trimethyl-10-[2-[3-[2-[(1R,4S,5R,8S,9R,12R,13R)-1,5,9-trimethyl-11,14,15,16-tetraoxatetracyclo[10.3.1.04,13.08,13]hexadecan-10-yl]ethynyl]phenyl]ethynyl]-11,14,15,16-tetraoxatetracyclo[10.3.1.04,13.08,13]hexadecane

> <PUBCHEM_IUPAC_CAS_NAME>
(1R,4S,5R,8S,9R,12R,13R)-1,5,9-trimethyl-10-[2-[3-[2-[(1R,4S,5R,8S,9R,12R,13R)-1,5,9-trimethyl-11,14,15,16-tetraoxatetracyclo[10.3.1.04,13.08,13]hexadecan-10-yl]ethynyl]phenyl]ethynyl]-11,14,15,16-tetraoxatetracyclo[10.3.1.04,13.08,13]hexadecane

> <PUBCHEM_IUPAC_NAME_MARKUP>
(1<I>R</I>,4<I>S</I>,5<I>R</I>,8<I>S</I>,9<I>R</I>,12<I>R</I>,13<I>R</I>)-1,5,9-trimethyl-10-[2-[3-[2-[(1<I>R</I>,4<I>S</I>,5<I>R</I>,8<I>S</I>,9<I>R</I>,12<I>R</I>,13<I>R</I>)-1,5,9-trimethyl-11,14,15,16-tetraoxatetracyclo[10.3.1.0<SUP>4,13</SUP>.0<SUP>8,13</SUP>]hexadecan-10-yl]ethynyl]phenyl]ethynyl]-11,14,15,16-tetraoxatetracyclo[10.3.1.0<SUP>4,13</SUP>.0<SUP>8,13</SUP>]hexadecane

> <PUBCHEM_IUPAC_NAME>
(1R,4S,5R,8S,9R,12R,13R)-1,5,9-trimethyl-10-[2-[3-[2-[(1R,4S,5R,8S,9R,12R,13R)-1,5,9-trimethyl-11,14,15,16-tetraoxatetracyclo[10.3.1.04,13.08,13]hexadecan-10-yl]ethynyl]phenyl]ethynyl]-11,14,15,16-tetraoxatetracyclo[10.3.1.04,13.08,13]hexadecane

> <PUBCHEM_IUPAC_SYSTEMATIC_NAME>
(1R,4S,5R,8S,9R,12R,13R)-1,5,9-trimethyl-10-[2-[3-[2-[(1R,4S,5R,8S,9R,12R,13R)-1,5,9-trimethyl-11,14,15,16-tetraoxatetracyclo[10.3.1.04,13.08,13]hexadecan-10-yl]ethynyl]phenyl]ethynyl]-11,14,15,16-tetraoxatetracyclo[10.3.1.04,13.08,13]hexadecane

> <PUBCHEM_IUPAC_TRADITIONAL_NAME>
(1R,4S,5R,8S,9R,12R,13R)-1,5,9-trimethyl-10-[2-[3-[2-[(1R,4S,5R,8S,9R,12R,13R)-1,5,9-trimethyl-11,14,15,16-tetraoxatetracyclo[10.3.1.04,13.08,13]hexadecan-10-yl]ethynyl]phenyl]ethynyl]-11,14,15,16-tetraoxatetracyclo[10.3.1.04,13.08,13]hexadecane

> <PUBCHEM_IUPAC_INCHI>
InChI=1S/C40H50O8/c1-23-10-14-31-25(3)33(41-35-39(31)29(23)18-20-37(5,43-35)45-47-39)16-12-27-8-7-9-28(22-27)13-17-34-26(4)32-15-11-24(2)30-19-21-38(6)44-36(42-34)40(30,32)48-46-38/h7-9,22-26,29-36H,10-11,14-15,18-21H2,1-6H3/t23-,24-,25-,26-,29+,30+,31+,32+,33?,34?,35-,36-,37-,38-,39-,40-/m1/s1

> <PUBCHEM_IUPAC_INCHIKEY>
WPMIGTLWXKCKNT-FMTKKAAISA-N

> <PUBCHEM_XLOGP3_AA>
8

> <PUBCHEM_EXACT_MASS>
658.35056855

> <PUBCHEM_MOLECULAR_FORMULA>
C40H50O8

> <PUBCHEM_MOLECULAR_WEIGHT>
658.8

> <PUBCHEM_OPENEYE_CAN_SMILES>
CC1CCC2C(C(OC3C24C1CCC(O3)(OO4)C)C#CC5=CC(=CC=C5)C#CC6C(C7CCC(C8C79C(O6)OC(CC8)(OO9)C)C)C)C

> <PUBCHEM_OPENEYE_ISO_SMILES>
C[C@@H]1CC[C@H]2[C@H](C(O[C@H]3[C@@]24[C@H]1CC[C@](O3)(OO4)C)C#CC5=CC(=CC=C5)C#CC6[C@@H]([C@@H]7CC[C@H]([C@H]8[C@]79[C@H](O6)O[C@@](CC8)(OO9)C)C)C)C

> <PUBCHEM_CACTVS_TPSA>
73.8

> <PUBCHEM_MONOISOTOPIC_WEIGHT>
658.35056855

> <PUBCHEM_TOTAL_CHARGE>
0

> <PUBCHEM_HEAVY_ATOM_COUNT>
48

> <PUBCHEM_ATOM_DEF_STEREO_COUNT>
14

> <PUBCHEM_ATOM_UDEF_STEREO_COUNT>
2

> <PUBCHEM_BOND_DEF_STEREO_COUNT>
0

> <PUBCHEM_BOND_UDEF_STEREO_COUNT>
0

> <PUBCHEM_ISOTOPIC_ATOM_COUNT>
0

> <PUBCHEM_COMPONENT_COUNT>
1

> <PUBCHEM_CACTVS_TAUTO_COUNT>
-1

> <PUBCHEM_COORDINATE_TYPE>
1
5
255

> <PUBCHEM_BONDANNOTATIONS>
9  1  5
11  49  5
12  50  5
13  51  5
14  52  5
15  33  5
16  34  5
17  55  6
18  56  6
10  2  5
21  35  6
22  36  6
27  37  5
28  38  5
31  39  3
32  40  3
43  45  8
43  46  8
44  45  8
44  47  8
46  48  8
47  48  8

$$$$
