 
  -OEChem-10192103312D

 56 57  0     1  0  0  0  0  0999 V2000
    9.0000    3.1956    0.0000 O   0  0  0  0  0  0  0  0  0  0  0  0
   12.0000   -0.2685    0.0000 O   0  0  0  0  0  0  0  0  0  0  0  0
   10.5000    2.3296    0.0000 O   0  0  0  0  0  0  0  0  0  0  0  0
   10.5000   -1.1345    0.0000 O   0  0  0  0  0  0  0  0  0  0  0  0
    6.5000   -2.8665    0.0000 O   0  0  0  0  0  0  0  0  0  0  0  0
    9.0000    1.4636    0.0000 C   0  0  0  0  0  0  0  0  0  0  0  0
   10.5000    0.5976    0.0000 C   0  0  0  0  0  0  0  0  0  0  0  0
    9.5000    0.5976    0.0000 C   0  0  0  0  0  0  0  0  0  0  0  0
    8.1340    0.9636    0.0000 C   0  0  0  0  0  0  0  0  0  0  0  0
    8.1340    1.9636    0.0000 C   0  0  0  0  0  0  0  0  0  0  0  0
   11.3660    1.0976    0.0000 C   0  0  0  0  0  0  0  0  0  0  0  0
   10.5000    1.5976    0.0000 C   0  0  0  0  0  0  0  0  0  0  0  0
    9.0000   -0.2685    0.0000 C   0  0  0  0  0  0  0  0  0  0  0  0
    9.5000    2.3296    0.0000 C   0  0  0  0  0  0  0  0  0  0  0  0
   11.0000   -0.2685    0.0000 C   0  0  0  0  0  0  0  0  0  0  0  0
    8.0000   -0.2685    0.0000 C   0  0  0  0  0  0  0  0  0  0  0  0
    7.5000   -1.1345    0.0000 C   0  0  0  0  0  0  0  0  0  0  0  0
    6.5000   -1.1345    0.0000 C   0  0  0  0  0  0  0  0  0  0  0  0
    6.0000   -2.0005    0.0000 C   0  0  3  0  0  0  0  0  0  0  0  0
    5.0000   -2.0005    0.0000 C   0  0  0  0  0  0  0  0  0  0  0  0
    4.5000   -2.8665    0.0000 C   0  0  0  0  0  0  0  0  0  0  0  0
    3.5000   -2.8665    0.0000 C   0  0  0  0  0  0  0  0  0  0  0  0
    3.0000   -3.7326    0.0000 C   0  0  0  0  0  0  0  0  0  0  0  0
    2.0000   -3.7326    0.0000 C   0  0  0  0  0  0  0  0  0  0  0  0
    8.8800    0.5976    0.0000 H   0  0  0  0  0  0  0  0  0  0  0  0
    7.5234    0.8559    0.0000 H   0  0  0  0  0  0  0  0  0  0  0  0
    8.3460    0.3810    0.0000 H   0  0  0  0  0  0  0  0  0  0  0  0
    8.3460    2.5462    0.0000 H   0  0  0  0  0  0  0  0  0  0  0  0
    7.5234    2.0712    0.0000 H   0  0  0  0  0  0  0  0  0  0  0  0
   11.7646    0.6226    0.0000 H   0  0  0  0  0  0  0  0  0  0  0  0
   11.7646    1.5725    0.0000 H   0  0  0  0  0  0  0  0  0  0  0  0
   10.7121    2.1802    0.0000 H   0  0  0  0  0  0  0  0  0  0  0  0
    9.8894    1.7052    0.0000 H   0  0  0  0  0  0  0  0  0  0  0  0
    8.8923   -0.8790    0.0000 H   0  0  0  0  0  0  0  0  0  0  0  0
    9.5826   -0.4805    0.0000 H   0  0  0  0  0  0  0  0  0  0  0  0
    8.1077    0.3421    0.0000 H   0  0  0  0  0  0  0  0  0  0  0  0
    7.4174   -0.0564    0.0000 H   0  0  0  0  0  0  0  0  0  0  0  0
    7.3923   -1.7451    0.0000 H   0  0  0  0  0  0  0  0  0  0  0  0
    8.0826   -1.3466    0.0000 H   0  0  0  0  0  0  0  0  0  0  0  0
    9.3100    3.7326    0.0000 H   0  0  0  0  0  0  0  0  0  0  0  0
   12.3100   -0.8054    0.0000 H   0  0  0  0  0  0  0  0  0  0  0  0
    6.6077   -0.5239    0.0000 H   0  0  0  0  0  0  0  0  0  0  0  0
    5.9174   -0.9224    0.0000 H   0  0  0  0  0  0  0  0  0  0  0  0
    5.6900   -2.5375    0.0000 H   0  0  0  0  0  0  0  0  0  0  0  0
    5.1077   -1.3899    0.0000 H   0  0  0  0  0  0  0  0  0  0  0  0
    4.4174   -1.7885    0.0000 H   0  0  0  0  0  0  0  0  0  0  0  0
    4.3923   -3.4771    0.0000 H   0  0  0  0  0  0  0  0  0  0  0  0
    5.0826   -3.0786    0.0000 H   0  0  0  0  0  0  0  0  0  0  0  0
    6.1900   -3.4035    0.0000 H   0  0  0  0  0  0  0  0  0  0  0  0
    3.6077   -2.2560    0.0000 H   0  0  0  0  0  0  0  0  0  0  0  0
    2.9174   -2.6545    0.0000 H   0  0  0  0  0  0  0  0  0  0  0  0
    2.8923   -4.3431    0.0000 H   0  0  0  0  0  0  0  0  0  0  0  0
    3.5826   -3.9446    0.0000 H   0  0  0  0  0  0  0  0  0  0  0  0
    2.0000   -3.1126    0.0000 H   0  0  0  0  0  0  0  0  0  0  0  0
    1.3800   -3.7326    0.0000 H   0  0  0  0  0  0  0  0  0  0  0  0
    2.0000   -4.3526    0.0000 H   0  0  0  0  0  0  0  0  0  0  0  0
  1 14  1  0  0  0  0
  1 40  1  0  0  0  0
  2 15  1  0  0  0  0
  2 41  1  0  0  0  0
  3 14  2  0  0  0  0
  4 15  2  0  0  0  0
  5 19  1  0  0  0  0
  5 49  1  0  0  0  0
  6  8  1  0  0  0  0
  6  9  1  0  0  0  0
  6 10  1  0  0  0  0
  6 14  1  0  0  0  0
  7  8  1  0  0  0  0
  7 11  1  0  0  0  0
  7 12  1  0  0  0  0
  7 15  1  0  0  0  0
  8 13  1  0  0  0  0
  8 25  1  0  0  0  0
  9 10  1  0  0  0  0
  9 26  1  0  0  0  0
  9 27  1  0  0  0  0
 10 28  1  0  0  0  0
 10 29  1  0  0  0  0
 11 12  1  0  0  0  0
 11 30  1  0  0  0  0
 11 31  1  0  0  0  0
 12 32  1  0  0  0  0
 12 33  1  0  0  0  0
 13 16  1  0  0  0  0
 13 34  1  0  0  0  0
 13 35  1  0  0  0  0
 16 17  1  0  0  0  0
 16 36  1  0  0  0  0
 16 37  1  0  0  0  0
 17 18  1  0  0  0  0
 17 38  1  0  0  0  0
 17 39  1  0  0  0  0
 18 19  1  0  0  0  0
 18 42  1  0  0  0  0
 18 43  1  0  0  0  0
 19 20  1  0  0  0  0
 19 44  1  0  0  0  0
 20 21  1  0  0  0  0
 20 45  1  0  0  0  0
 20 46  1  0  0  0  0
 21 22  1  0  0  0  0
 21 47  1  0  0  0  0
 21 48  1  0  0  0  0
 22 23  1  0  0  0  0
 22 50  1  0  0  0  0
 22 51  1  0  0  0  0
 23 24  1  0  0  0  0
 23 52  1  0  0  0  0
 23 53  1  0  0  0  0
 24 54  1  0  0  0  0
 24 55  1  0  0  0  0
 24 56  1  0  0  0  0
M  END
> <PUBCHEM_COMPOUND_CID>
69693324

> <PUBCHEM_COMPOUND_CANONICALIZED>
1

> <PUBCHEM_CACTVS_COMPLEXITY>
421

> <PUBCHEM_CACTVS_HBOND_ACCEPTOR>
5

> <PUBCHEM_CACTVS_HBOND_DONOR>
3

> <PUBCHEM_CACTVS_ROTATABLE_BOND>
13

> <PUBCHEM_CACTVS_SUBSKEYS>
AAADcfB4OAAAAAAAAAAAAAAAGDAAAAAAAAAAAAAAAAAAAAAAAAAAGgAACAAADxSggAICCAAAAgAIAACQCAAAAAAAAAAAAAEAAAAAEBIAAAAAQAAEAAAAAAGI7uCPgAAAAAAAAAAAAAAAAAAAAAAAAAAAAA==

> <PUBCHEM_IUPAC_OPENEYE_NAME>
1-[1-(1-carboxycyclopropyl)-6-hydroxy-undecyl]cyclopropanecarboxylic acid

> <PUBCHEM_IUPAC_CAS_NAME>
1-[1-(1-carboxycyclopropyl)-6-hydroxyundecyl]-1-cyclopropanecarboxylic acid

> <PUBCHEM_IUPAC_NAME_MARKUP>
1-[1-(1-carboxycyclopropyl)-6-hydroxyundecyl]cyclopropane-1-carboxylic acid

> <PUBCHEM_IUPAC_NAME>
1-[1-(1-carboxycyclopropyl)-6-hydroxyundecyl]cyclopropane-1-carboxylic acid

> <PUBCHEM_IUPAC_SYSTEMATIC_NAME>
1-[1-(1-carboxycyclopropyl)-6-oxidanyl-undecyl]cyclopropane-1-carboxylic acid

> <PUBCHEM_IUPAC_TRADITIONAL_NAME>
1-[1-(1-carboxycyclopropyl)-6-hydroxy-undecyl]cyclopropanecarboxylic acid

> <PUBCHEM_IUPAC_INCHI>
InChI=1S/C19H32O5/c1-2-3-4-7-14(20)8-5-6-9-15(18(10-11-18)16(21)22)19(12-13-19)17(23)24/h14-15,20H,2-13H2,1H3,(H,21,22)(H,23,24)

> <PUBCHEM_IUPAC_INCHIKEY>
ALPHWOSRHHTDMD-UHFFFAOYSA-N

> <PUBCHEM_XLOGP3_AA>
3.7

> <PUBCHEM_EXACT_MASS>
340.22497412

> <PUBCHEM_MOLECULAR_FORMULA>
C19H32O5

> <PUBCHEM_MOLECULAR_WEIGHT>
340.5

> <PUBCHEM_OPENEYE_CAN_SMILES>
CCCCCC(CCCCC(C1(CC1)C(=O)O)C2(CC2)C(=O)O)O

> <PUBCHEM_OPENEYE_ISO_SMILES>
CCCCCC(CCCCC(C1(CC1)C(=O)O)C2(CC2)C(=O)O)O

> <PUBCHEM_CACTVS_TPSA>
94.8

> <PUBCHEM_MONOISOTOPIC_WEIGHT>
340.22497412

> <PUBCHEM_TOTAL_CHARGE>
0

> <PUBCHEM_HEAVY_ATOM_COUNT>
24

> <PUBCHEM_ATOM_DEF_STEREO_COUNT>
0

> <PUBCHEM_ATOM_UDEF_STEREO_COUNT>
1

> <PUBCHEM_BOND_DEF_STEREO_COUNT>
0

> <PUBCHEM_BOND_UDEF_STEREO_COUNT>
0

> <PUBCHEM_ISOTOPIC_ATOM_COUNT>
0

> <PUBCHEM_COMPONENT_COUNT>
1

> <PUBCHEM_CACTVS_TAUTO_COUNT>
-1

> <PUBCHEM_COORDINATE_TYPE>
1
5
255

> <PUBCHEM_BONDANNOTATIONS>
19  5  3

$$$$
