 
  -OEChem-10192103522D

 80 84  0     1  0  0  0  0  0999 V2000
    9.4651   -0.3625    0.0000 O   0  0  0  0  0  0  0  0  0  0  0  0
    5.1350   -1.8625    0.0000 O   0  0  0  0  0  0  0  0  0  0  0  0
    6.8671   -1.8625    0.0000 O   0  0  0  0  0  0  0  0  0  0  0  0
    7.7331   -2.3625    0.0000 O   0  0  0  0  0  0  0  0  0  0  0  0
    9.4651   -3.3625    0.0000 O   0  0  0  0  0  0  0  0  0  0  0  0
   11.1972   -2.3625    0.0000 O   0  0  0  0  0  0  0  0  0  0  0  0
    5.1350   -4.8625    0.0000 O   0  0  0  0  0  0  0  0  0  0  0  0
    6.8671   -3.8625    0.0000 O   0  0  0  0  0  0  0  0  0  0  0  0
    3.4030   -3.8625    0.0000 O   0  0  0  0  0  0  0  0  0  0  0  0
   12.0632   -0.8625    0.0000 O   0  0  0  0  0  0  0  0  0  0  0  0
    8.6431    1.1443    0.0000 O   0  0  0  0  0  0  0  0  0  0  0  0
    2.5369   -2.3625    0.0000 O   0  0  0  0  0  0  0  0  0  0  0  0
    5.1350    1.1375    0.0000 O   0  0  0  0  0  0  0  0  0  0  0  0
    5.9793    2.6689    0.0000 O   0  0  0  0  0  0  0  0  0  0  0  0
   12.9292    0.6375    0.0000 O   0  0  0  0  0  0  0  0  0  0  0  0
   12.1229    4.1725    0.0000 O   0  0  0  0  0  0  0  0  0  0  0  0
    8.5991   -0.8625    0.0000 C   0  0  2  0  0  0  0  0  0  0  0  0
    8.5991   -1.8625    0.0000 C   0  0  1  0  0  0  0  0  0  0  0  0
    9.4651   -2.3625    0.0000 C   0  0  1  0  0  0  0  0  0  0  0  0
   10.3312   -1.8625    0.0000 C   0  0  2  0  0  0  0  0  0  0  0  0
   10.3312   -0.8625    0.0000 C   0  0  1  0  0  0  0  0  0  0  0  0
    7.7331   -0.3625    0.0000 C   0  0  0  0  0  0  0  0  0  0  0  0
    5.1350   -3.8625    0.0000 C   0  0  1  0  0  0  0  0  0  0  0  0
    6.0010   -3.3625    0.0000 C   0  0  2  0  0  0  0  0  0  0  0  0
    6.0010   -2.3625    0.0000 C   0  0  1  0  0  0  0  0  0  0  0  0
    4.2690   -3.3625    0.0000 C   0  0  2  0  0  0  0  0  0  0  0  0
    4.2690   -2.3625    0.0000 C   0  0  1  0  0  0  0  0  0  0  0  0
   11.1972   -0.3625    0.0000 C   0  0  0  0  0  0  0  0  0  0  0  0
    6.8671   -0.8625    0.0000 C   0  0  0  0  0  0  0  0  0  0  0  0
    7.7331    0.6375    0.0000 C   0  0  0  0  0  0  0  0  0  0  0  0
    3.4030   -1.8625    0.0000 C   0  0  0  0  0  0  0  0  0  0  0  0
    6.8671    1.1375    0.0000 C   0  0  0  0  0  0  0  0  0  0  0  0
    6.0010   -0.3625    0.0000 C   0  0  0  0  0  0  0  0  0  0  0  0
    6.0010    0.6375    0.0000 C   0  0  0  0  0  0  0  0  0  0  0  0
    6.8510    2.1790    0.0000 C   0  0  0  0  0  0  0  0  0  0  0  0
    8.6511    2.1859    0.0000 C   0  0  0  0  0  0  0  0  0  0  0  0
    7.7490    2.7067    0.0000 C   0  0  0  0  0  0  0  0  0  0  0  0
   12.9292   -0.3625    0.0000 C   0  0  0  0  0  0  0  0  0  0  0  0
    9.5191    2.6826    0.0000 C   0  0  0  0  0  0  0  0  0  0  0  0
   13.7953   -0.8625    0.0000 C   0  0  0  0  0  0  0  0  0  0  0  0
    9.5229    3.6826    0.0000 C   0  0  0  0  0  0  0  0  0  0  0  0
   10.3832    2.1792    0.0000 C   0  0  0  0  0  0  0  0  0  0  0  0
   10.3909    4.1792    0.0000 C   0  0  0  0  0  0  0  0  0  0  0  0
   11.2511    2.6759    0.0000 C   0  0  0  0  0  0  0  0  0  0  0  0
   11.2550    3.6759    0.0000 C   0  0  0  0  0  0  0  0  0  0  0  0
   12.1268    5.1725    0.0000 C   0  0  0  0  0  0  0  0  0  0  0  0
    8.5991   -0.0125    0.0000 H   0  0  0  0  0  0  0  0  0  0  0  0
    8.0622   -1.5525    0.0000 H   0  0  0  0  0  0  0  0  0  0  0  0
    8.9282   -2.6725    0.0000 H   0  0  0  0  0  0  0  0  0  0  0  0
   10.3312   -2.4825    0.0000 H   0  0  0  0  0  0  0  0  0  0  0  0
   10.3312   -0.2425    0.0000 H   0  0  0  0  0  0  0  0  0  0  0  0
    4.5981   -4.1725    0.0000 H   0  0  0  0  0  0  0  0  0  0  0  0
    6.0010   -3.9825    0.0000 H   0  0  0  0  0  0  0  0  0  0  0  0
    4.2690   -3.9825    0.0000 H   0  0  0  0  0  0  0  0  0  0  0  0
    6.0010   -1.7425    0.0000 H   0  0  0  0  0  0  0  0  0  0  0  0
    4.2690   -1.7425    0.0000 H   0  0  0  0  0  0  0  0  0  0  0  0
   11.5957    0.1124    0.0000 H   0  0  0  0  0  0  0  0  0  0  0  0
   10.7987    0.1124    0.0000 H   0  0  0  0  0  0  0  0  0  0  0  0
    7.7331   -2.9825    0.0000 H   0  0  0  0  0  0  0  0  0  0  0  0
   10.0021   -3.6725    0.0000 H   0  0  0  0  0  0  0  0  0  0  0  0
   11.1972   -2.9825    0.0000 H   0  0  0  0  0  0  0  0  0  0  0  0
    3.8015   -1.3876    0.0000 H   0  0  0  0  0  0  0  0  0  0  0  0
    3.0044   -1.3876    0.0000 H   0  0  0  0  0  0  0  0  0  0  0  0
    5.4641   -0.6725    0.0000 H   0  0  0  0  0  0  0  0  0  0  0  0
    4.5981   -5.1725    0.0000 H   0  0  0  0  0  0  0  0  0  0  0  0
    6.8671   -4.4825    0.0000 H   0  0  0  0  0  0  0  0  0  0  0  0
    3.4030   -4.4825    0.0000 H   0  0  0  0  0  0  0  0  0  0  0  0
    7.7466    3.3267    0.0000 H   0  0  0  0  0  0  0  0  0  0  0  0
    2.0000   -2.0525    0.0000 H   0  0  0  0  0  0  0  0  0  0  0  0
    4.5981    0.8275    0.0000 H   0  0  0  0  0  0  0  0  0  0  0  0
   13.4853   -1.3995    0.0000 H   0  0  0  0  0  0  0  0  0  0  0  0
   14.3322   -1.1725    0.0000 H   0  0  0  0  0  0  0  0  0  0  0  0
   14.1053   -0.3256    0.0000 H   0  0  0  0  0  0  0  0  0  0  0  0
    8.9872    3.9946    0.0000 H   0  0  0  0  0  0  0  0  0  0  0  0
   10.3808    1.5592    0.0000 H   0  0  0  0  0  0  0  0  0  0  0  0
   10.3933    4.7992    0.0000 H   0  0  0  0  0  0  0  0  0  0  0  0
   11.7868    2.3638    0.0000 H   0  0  0  0  0  0  0  0  0  0  0  0
   12.7468    5.1701    0.0000 H   0  0  0  0  0  0  0  0  0  0  0  0
   12.1291    5.7925    0.0000 H   0  0  0  0  0  0  0  0  0  0  0  0
   11.5068    5.1749    0.0000 H   0  0  0  0  0  0  0  0  0  0  0  0
  1 17  1  0  0  0  0
  1 21  1  0  0  0  0
  2 25  1  0  0  0  0
  2 27  1  0  0  0  0
 25  3  1  1  0  0  0
  3 29  1  0  0  0  0
 18  4  1  1  0  0  0
  4 59  1  0  0  0  0
 19  5  1  1  0  0  0
  5 60  1  0  0  0  0
 20  6  1  6  0  0  0
  6 61  1  0  0  0  0
 23  7  1  6  0  0  0
  7 65  1  0  0  0  0
 24  8  1  6  0  0  0
  8 66  1  0  0  0  0
 26  9  1  1  0  0  0
  9 67  1  0  0  0  0
 10 28  1  0  0  0  0
 10 38  1  0  0  0  0
 11 30  1  0  0  0  0
 11 36  1  0  0  0  0
 12 31  1  0  0  0  0
 12 69  1  0  0  0  0
 13 34  1  0  0  0  0
 13 70  1  0  0  0  0
 14 35  2  0  0  0  0
 15 38  2  0  0  0  0
 16 45  1  0  0  0  0
 16 46  1  0  0  0  0
 17 18  1  0  0  0  0
 17 22  1  0  0  0  0
 17 47  1  1  0  0  0
 18 19  1  0  0  0  0
 18 48  1  0  0  0  0
 19 20  1  0  0  0  0
 19 49  1  0  0  0  0
 20 21  1  0  0  0  0
 20 50  1  0  0  0  0
 21 28  1  6  0  0  0
 21 51  1  0  0  0  0
 22 29  2  0  0  0  0
 22 30  1  0  0  0  0
 23 24  1  0  0  0  0
 23 26  1  0  0  0  0
 23 52  1  0  0  0  0
 24 25  1  0  0  0  0
 24 53  1  0  0  0  0
 25 55  1  0  0  0  0
 26 27  1  0  0  0  0
 26 54  1  0  0  0  0
 27 31  1  1  0  0  0
 27 56  1  0  0  0  0
 28 57  1  0  0  0  0
 28 58  1  0  0  0  0
 29 33  1  0  0  0  0
 30 32  2  0  0  0  0
 31 62  1  0  0  0  0
 31 63  1  0  0  0  0
 32 34  1  0  0  0  0
 32 35  1  0  0  0  0
 33 34  2  0  0  0  0
 33 64  1  0  0  0  0
 35 37  1  0  0  0  0
 36 37  2  0  0  0  0
 36 39  1  0  0  0  0
 37 68  1  0  0  0  0
 38 40  1  0  0  0  0
 39 41  2  0  0  0  0
 39 42  1  0  0  0  0
 40 71  1  0  0  0  0
 40 72  1  0  0  0  0
 40 73  1  0  0  0  0
 41 43  1  0  0  0  0
 41 74  1  0  0  0  0
 42 44  2  0  0  0  0
 42 75  1  0  0  0  0
 43 45  2  0  0  0  0
 43 76  1  0  0  0  0
 44 45  1  0  0  0  0
 44 77  1  0  0  0  0
 46 78  1  0  0  0  0
 46 79  1  0  0  0  0
 46 80  1  0  0  0  0
M  END
> <PUBCHEM_COMPOUND_CID>
102107503

> <PUBCHEM_COMPOUND_CANONICALIZED>
1

> <PUBCHEM_CACTVS_COMPLEXITY>
1090

> <PUBCHEM_CACTVS_HBOND_ACCEPTOR>
16

> <PUBCHEM_CACTVS_HBOND_DONOR>
8

> <PUBCHEM_CACTVS_ROTATABLE_BOND>
9

> <PUBCHEM_CACTVS_SUBSKEYS>
AAADcfB4PgAAAAAAAAAAAAAAAAAAAAAAAAA0aIECAAAAAACBQAAAGgAACAAADBSwmAMyDoAABgCIAqDSCAACCAAkIAAIiAEGCMgdNzaGNRqieWCl4BUPuQfI7PzOIAACCAAIAABAAAQQABAAAAAAAAAAAA==

> <PUBCHEM_IUPAC_OPENEYE_NAME>
[(2R,3R,4S,5R,6S)-3,4,5-trihydroxy-6-[5-hydroxy-2-(4-methoxyphenyl)-4-oxo-7-[(2S,3R,4R,5R,6R)-3,4,5-trihydroxy-6-(hydroxymethyl)tetrahydropyran-2-yl]oxy-chromen-8-yl]tetrahydropyran-2-yl]methyl acetate

> <PUBCHEM_IUPAC_CAS_NAME>
acetic acid [(2R,3R,4S,5R,6S)-3,4,5-trihydroxy-6-[5-hydroxy-2-(4-methoxyphenyl)-4-oxo-7-[[(2S,3R,4R,5R,6R)-3,4,5-trihydroxy-6-(hydroxymethyl)-2-oxanyl]oxy]-1-benzopyran-8-yl]-2-oxanyl]methyl ester

> <PUBCHEM_IUPAC_NAME_MARKUP>
[(2<I>R</I>,3<I>R</I>,4<I>S</I>,5<I>R</I>,6<I>S</I>)-3,4,5-trihydroxy-6-[5-hydroxy-2-(4-methoxyphenyl)-4-oxo-7-[(2<I>S</I>,3<I>R</I>,4<I>R</I>,5<I>R</I>,6<I>R</I>)-3,4,5-trihydroxy-6-(hydroxymethyl)oxan-2-yl]oxychromen-8-yl]oxan-2-yl]methyl acetate

> <PUBCHEM_IUPAC_NAME>
[(2R,3R,4S,5R,6S)-3,4,5-trihydroxy-6-[5-hydroxy-2-(4-methoxyphenyl)-4-oxo-7-[(2S,3R,4R,5R,6R)-3,4,5-trihydroxy-6-(hydroxymethyl)oxan-2-yl]oxychromen-8-yl]oxan-2-yl]methyl acetate

> <PUBCHEM_IUPAC_SYSTEMATIC_NAME>
[(2R,3R,4S,5R,6S)-6-[7-[(2S,3R,4R,5R,6R)-6-(hydroxymethyl)-3,4,5-tris(oxidanyl)oxan-2-yl]oxy-2-(4-methoxyphenyl)-5-oxidanyl-4-oxidanylidene-chromen-8-yl]-3,4,5-tris(oxidanyl)oxan-2-yl]methyl ethanoate

> <PUBCHEM_IUPAC_TRADITIONAL_NAME>
acetic acid [(2R,3R,4S,5R,6S)-3,4,5-trihydroxy-6-[5-hydroxy-4-keto-2-(4-methoxyphenyl)-7-[(2S,3R,4R,5R,6R)-3,4,5-trihydroxy-6-methylol-tetrahydropyran-2-yl]oxy-chromen-8-yl]tetrahydropyran-2-yl]methyl ester

> <PUBCHEM_IUPAC_INCHI>
InChI=1S/C30H34O16/c1-11(32)42-10-19-23(36)24(37)26(39)29(44-19)21-17(45-30-27(40)25(38)22(35)18(9-31)46-30)8-15(34)20-14(33)7-16(43-28(20)21)12-3-5-13(41-2)6-4-12/h3-8,18-19,22-27,29-31,34-40H,9-10H2,1-2H3/t18-,19-,22+,23+,24-,25-,26-,27-,29+,30-/m1/s1

> <PUBCHEM_IUPAC_INCHIKEY>
GPHUXNDOOHMAOE-LNVHJQEESA-N

> <PUBCHEM_XLOGP3_AA>
-1.3

> <PUBCHEM_EXACT_MASS>
650.18468499

> <PUBCHEM_MOLECULAR_FORMULA>
C30H34O16

> <PUBCHEM_MOLECULAR_WEIGHT>
650.6

> <PUBCHEM_OPENEYE_CAN_SMILES>
CC(=O)OCC1C(C(C(C(O1)C2=C(C=C(C3=C2OC(=CC3=O)C4=CC=C(C=C4)OC)O)OC5C(C(C(C(O5)CO)O)O)O)O)O)O

> <PUBCHEM_OPENEYE_ISO_SMILES>
CC(=O)OC[C@@H]1[C@@H]([C@H]([C@H]([C@@H](O1)C2=C(C=C(C3=C2OC(=CC3=O)C4=CC=C(C=C4)OC)O)O[C@H]5[C@@H]([C@@H]([C@H]([C@H](O5)CO)O)O)O)O)O)O

> <PUBCHEM_CACTVS_TPSA>
251

> <PUBCHEM_MONOISOTOPIC_WEIGHT>
650.18468499

> <PUBCHEM_TOTAL_CHARGE>
0

> <PUBCHEM_HEAVY_ATOM_COUNT>
46

> <PUBCHEM_ATOM_DEF_STEREO_COUNT>
10

> <PUBCHEM_ATOM_UDEF_STEREO_COUNT>
0

> <PUBCHEM_BOND_DEF_STEREO_COUNT>
0

> <PUBCHEM_BOND_UDEF_STEREO_COUNT>
0

> <PUBCHEM_ISOTOPIC_ATOM_COUNT>
0

> <PUBCHEM_COMPONENT_COUNT>
1

> <PUBCHEM_CACTVS_TAUTO_COUNT>
-1

> <PUBCHEM_COORDINATE_TYPE>
1
5
255

> <PUBCHEM_BONDANNOTATIONS>
11  30  8
11  36  8
17  47  5
21  28  6
22  29  8
22  30  8
27  31  5
29  33  8
25  3  5
30  32  8
32  34  8
32  35  8
33  34  8
35  37  8
36  37  8
39  41  8
39  42  8
18  4  5
41  43  8
42  44  8
43  45  8
44  45  8
19  5  5
20  6  6
23  7  6
24  8  6
26  9  5

$$$$
