 
  -OEChem-10192104172D

 82 86  0     1  0  0  0  0  0999 V2000
    2.5357   -1.8922    0.0000 O   0  0  0  0  0  0  0  0  0  0  0  0
    2.5519    0.1994    0.0000 O   0  0  0  0  0  0  0  0  0  0  0  0
    4.3500   -3.6701    0.0000 O   0  0  0  0  0  0  0  0  0  0  0  0
   11.4608    1.1943    0.0000 O   0  0  0  0  0  0  0  0  0  0  0  0
    2.8467   -2.8098    0.0000 O   0  0  0  0  0  0  0  0  0  0  0  0
   10.6064   -0.3123    0.0000 O   0  0  0  0  0  0  0  0  0  0  0  0
    7.0628   -0.3398    0.0000 C   0  0  2  0  0  0  0  0  0  0  0  0
    6.1968    0.1601    0.0000 C   0  0  1  0  0  0  0  0  0  0  0  0
    5.2868   -0.3467    0.0000 C   0  0  2  0  0  0  0  0  0  0  0  0
    7.9288    0.1601    0.0000 C   0  0  1  0  0  0  0  0  0  0  0  0
    5.2787   -1.3883    0.0000 C   0  0  1  0  0  0  0  0  0  0  0  0
    7.0789   -1.3814    0.0000 C   0  0  0  0  0  0  0  0  0  0  0  0
    7.9288    1.1602    0.0000 C   0  0  0  0  0  0  0  0  0  0  0  0
    6.1808   -1.9091    0.0000 C   0  0  0  0  0  0  0  0  0  0  0  0
    8.8228    1.6948    0.0000 C   0  0  1  0  0  0  0  0  0  0  0  0
    4.3433   -1.9380    0.0000 C   0  0  2  0  0  0  0  0  0  0  0  0
    6.1968    1.1602    0.0000 C   0  0  0  0  0  0  0  0  0  0  0  0
    8.8228   -0.3745    0.0000 C   0  0  0  0  0  0  0  0  0  0  0  0
    4.3599    0.2174    0.0000 C   0  0  0  0  0  0  0  0  0  0  0  0
    9.7288    1.1810    0.0000 C   0  0  1  0  0  0  0  0  0  0  0  0
    7.7056   -1.1059    0.0000 C   0  0  0  0  0  0  0  0  0  0  0  0
    9.7288    0.1393    0.0000 C   0  0  0  0  0  0  0  0  0  0  0  0
    7.0628    1.6602    0.0000 C   0  0  0  0  0  0  0  0  0  0  0  0
    5.2945    0.6533    0.0000 C   0  0  0  0  0  0  0  0  0  0  0  0
    3.4037   -1.3955    0.0000 C   0  0  2  0  0  0  0  0  0  0  0  0
    3.4120   -0.3106    0.0000 C   0  0  1  0  0  0  0  0  0  0  0  0
    8.2709   -0.7795    0.0000 C   0  0  0  0  0  0  0  0  0  0  0  0
    8.7977    2.7795    0.0000 C   0  0  0  0  0  0  0  0  0  0  0  0
   10.6726    1.7162    0.0000 C   0  0  0  0  0  0  0  0  0  0  0  0
    9.7288    3.3364    0.0000 C   0  0  0  0  0  0  0  0  0  0  0  0
   10.6726    2.8012    0.0000 C   0  0  0  0  0  0  0  0  0  0  0  0
    4.8466   -2.8021    0.0000 C   0  0  0  0  0  0  0  0  0  0  0  0
    3.8467   -2.8060    0.0000 C   0  0  0  0  0  0  0  0  0  0  0  0
   10.5987    0.6877    0.0000 C   0  0  0  0  0  0  0  0  0  0  0  0
   10.2188    4.2082    0.0000 C   0  0  0  0  0  0  0  0  0  0  0  0
    9.2188    4.1966    0.0000 C   0  0  0  0  0  0  0  0  0  0  0  0
    6.9329    0.5851    0.0000 H   0  0  0  0  0  0  0  0  0  0  0  0
    5.2820   -2.2383    0.0000 H   0  0  0  0  0  0  0  0  0  0  0  0
    7.2969   -1.9618    0.0000 H   0  0  0  0  0  0  0  0  0  0  0  0
    7.6880   -1.2659    0.0000 H   0  0  0  0  0  0  0  0  0  0  0  0
    5.7835   -2.3851    0.0000 H   0  0  0  0  0  0  0  0  0  0  0  0
    6.5818   -2.3820    0.0000 H   0  0  0  0  0  0  0  0  0  0  0  0
    9.5522    2.1311    0.0000 H   0  0  0  0  0  0  0  0  0  0  0  0
    5.9847    1.7428    0.0000 H   0  0  0  0  0  0  0  0  0  0  0  0
    5.5862    1.0525    0.0000 H   0  0  0  0  0  0  0  0  0  0  0  0
    8.4182   -0.8443    0.0000 H   0  0  0  0  0  0  0  0  0  0  0  0
    9.2164   -0.8535    0.0000 H   0  0  0  0  0  0  0  0  0  0  0  0
    4.7681    0.6840    0.0000 H   0  0  0  0  0  0  0  0  0  0  0  0
    3.9700    0.6994    0.0000 H   0  0  0  0  0  0  0  0  0  0  0  0
    7.2306   -1.5044    0.0000 H   0  0  0  0  0  0  0  0  0  0  0  0
    8.1041   -1.5808    0.0000 H   0  0  0  0  0  0  0  0  0  0  0  0
    8.1805   -0.7074    0.0000 H   0  0  0  0  0  0  0  0  0  0  0  0
    9.9379   -0.4444    0.0000 H   0  0  0  0  0  0  0  0  0  0  0  0
   10.3397    0.2454    0.0000 H   0  0  0  0  0  0  0  0  0  0  0  0
    7.0628    2.2802    0.0000 H   0  0  0  0  0  0  0  0  0  0  0  0
    5.9145    0.6485    0.0000 H   0  0  0  0  0  0  0  0  0  0  0  0
    5.2993    1.2733    0.0000 H   0  0  0  0  0  0  0  0  0  0  0  0
    4.6745    0.6581    0.0000 H   0  0  0  0  0  0  0  0  0  0  0  0
    3.4025   -2.0155    0.0000 H   0  0  0  0  0  0  0  0  0  0  0  0
    2.8722   -0.6154    0.0000 H   0  0  0  0  0  0  0  0  0  0  0  0
    7.6884   -0.9916    0.0000 H   0  0  0  0  0  0  0  0  0  0  0  0
    8.4830   -1.3621    0.0000 H   0  0  0  0  0  0  0  0  0  0  0  0
    8.8535   -0.5674    0.0000 H   0  0  0  0  0  0  0  0  0  0  0  0
    8.5752    3.3582    0.0000 H   0  0  0  0  0  0  0  0  0  0  0  0
    8.1894    2.6593    0.0000 H   0  0  0  0  0  0  0  0  0  0  0  0
   10.8817    1.1325    0.0000 H   0  0  0  0  0  0  0  0  0  0  0  0
   11.2835    1.8223    0.0000 H   0  0  0  0  0  0  0  0  0  0  0  0
   11.2835    2.6951    0.0000 H   0  0  0  0  0  0  0  0  0  0  0  0
   10.8817    3.3849    0.0000 H   0  0  0  0  0  0  0  0  0  0  0  0
    4.3109   -3.1142    0.0000 H   0  0  0  0  0  0  0  0  0  0  0  0
    5.1587   -3.3378    0.0000 H   0  0  0  0  0  0  0  0  0  0  0  0
    5.3824   -2.4900    0.0000 H   0  0  0  0  0  0  0  0  0  0  0  0
   10.7593    3.9044    0.0000 H   0  0  0  0  0  0  0  0  0  0  0  0
   10.5226    4.7487    0.0000 H   0  0  0  0  0  0  0  0  0  0  0  0
    9.6783    4.5120    0.0000 H   0  0  0  0  0  0  0  0  0  0  0  0
    9.7522    4.5128    0.0000 H   0  0  0  0  0  0  0  0  0  0  0  0
    8.9027    4.7299    0.0000 H   0  0  0  0  0  0  0  0  0  0  0  0
    8.6855    3.8804    0.0000 H   0  0  0  0  0  0  0  0  0  0  0  0
    2.0000   -1.5801    0.0000 H   0  0  0  0  0  0  0  0  0  0  0  0
    2.5590    0.8194    0.0000 H   0  0  0  0  0  0  0  0  0  0  0  0
    4.0421   -4.2082    0.0000 H   0  0  0  0  0  0  0  0  0  0  0  0
   12.0001    0.8885    0.0000 H   0  0  0  0  0  0  0  0  0  0  0  0
 25  1  1  1  0  0  0
  1 79  1  0  0  0  0
 26  2  1  1  0  0  0
  2 80  1  0  0  0  0
  3 33  1  0  0  0  0
  3 81  1  0  0  0  0
  4 34  1  0  0  0  0
  4 82  1  0  0  0  0
  5 33  2  0  0  0  0
  6 34  2  0  0  0  0
  7  8  1  0  0  0  0
  7 10  1  0  0  0  0
  7 12  1  0  0  0  0
  7 21  1  1  0  0  0
  8  9  1  0  0  0  0
  8 17  1  0  0  0  0
  8 37  1  6  0  0  0
  9 11  1  0  0  0  0
  9 19  1  0  0  0  0
  9 24  1  1  0  0  0
 10 13  1  0  0  0  0
 10 18  1  0  0  0  0
 10 27  1  6  0  0  0
 11 14  1  0  0  0  0
 11 16  1  0  0  0  0
 11 38  1  6  0  0  0
 12 14  1  0  0  0  0
 12 39  1  0  0  0  0
 12 40  1  0  0  0  0
 13 15  1  0  0  0  0
 13 23  2  0  0  0  0
 14 41  1  0  0  0  0
 14 42  1  0  0  0  0
 15 20  1  0  0  0  0
 15 28  1  0  0  0  0
 15 43  1  1  0  0  0
 16 25  1  0  0  0  0
 16 32  1  1  0  0  0
 16 33  1  0  0  0  0
 17 23  1  0  0  0  0
 17 44  1  0  0  0  0
 17 45  1  0  0  0  0
 18 22  1  0  0  0  0
 18 46  1  0  0  0  0
 18 47  1  0  0  0  0
 19 26  1  0  0  0  0
 19 48  1  0  0  0  0
 19 49  1  0  0  0  0
 20 22  1  0  0  0  0
 20 29  1  0  0  0  0
 20 34  1  1  0  0  0
 21 50  1  0  0  0  0
 21 51  1  0  0  0  0
 21 52  1  0  0  0  0
 22 53  1  0  0  0  0
 22 54  1  0  0  0  0
 23 55  1  0  0  0  0
 24 56  1  0  0  0  0
 24 57  1  0  0  0  0
 24 58  1  0  0  0  0
 25 26  1  0  0  0  0
 25 59  1  0  0  0  0
 26 60  1  0  0  0  0
 27 61  1  0  0  0  0
 27 62  1  0  0  0  0
 27 63  1  0  0  0  0
 28 30  1  0  0  0  0
 28 64  1  0  0  0  0
 28 65  1  0  0  0  0
 29 31  1  0  0  0  0
 29 66  1  0  0  0  0
 29 67  1  0  0  0  0
 30 31  1  0  0  0  0
 30 35  1  0  0  0  0
 30 36  1  0  0  0  0
 31 68  1  0  0  0  0
 31 69  1  0  0  0  0
 32 70  1  0  0  0  0
 32 71  1  0  0  0  0
 32 72  1  0  0  0  0
 35 73  1  0  0  0  0
 35 74  1  0  0  0  0
 35 75  1  0  0  0  0
 36 76  1  0  0  0  0
 36 77  1  0  0  0  0
 36 78  1  0  0  0  0
M  END
> <PUBCHEM_COMPOUND_CID>
65048

> <PUBCHEM_COMPOUND_CANONICALIZED>
1

> <PUBCHEM_CACTVS_COMPLEXITY>
1020

> <PUBCHEM_CACTVS_HBOND_ACCEPTOR>
6

> <PUBCHEM_CACTVS_HBOND_DONOR>
4

> <PUBCHEM_CACTVS_ROTATABLE_BOND>
2

> <PUBCHEM_CACTVS_SUBSKEYS>
AAADcfB4OAAAAAAAAAAAAAAAAAAAAAAAAAAwYMGCAAAAAADAAAAAGgAACAAADxSggAICCAAAAgCIAiDSCAAAAAAgAAAACAEAAAgBEBYAAQAAQAAFoAAJAAPKyPCPgAAAAAAAAADAAAYAADCAAAAAAAAAAA==

> <PUBCHEM_IUPAC_OPENEYE_NAME>
(2S,3R,4S,4aR,6aR,6bS,8aS,12aS,14aR,14bR)-2,3-dihydroxy-4,6a,6b,11,11,14b-hexamethyl-1,2,3,4a,5,6,7,8,9,10,12,12a,14,14a-tetradecahydropicene-4,8a-dicarboxylic acid

> <PUBCHEM_IUPAC_CAS_NAME>
(2S,3R,4S,4aR,6aR,6bS,8aS,12aS,14aR,14bR)-2,3-dihydroxy-4,6a,6b,11,11,14b-hexamethyl-1,2,3,4a,5,6,7,8,9,10,12,12a,14,14a-tetradecahydropicene-4,8a-dicarboxylic acid

> <PUBCHEM_IUPAC_NAME_MARKUP>
(2<I>S</I>,3<I>R</I>,4<I>S</I>,4<I>a</I><I>R</I>,6<I>a</I><I>R</I>,6<I>b</I><I>S</I>,8<I>a</I><I>S</I>,12<I>a</I><I>S</I>,14<I>a</I><I>R</I>,14<I>b</I><I>R</I>)-2,3-dihydroxy-4,6<I>a</I>,6<I>b</I>,11,11,14<I>b</I>-hexamethyl-1,2,3,4<I>a</I>,5,6,7,8,9,10,12,12<I>a</I>,14,14<I>a</I>-tetradecahydropicene-4,8<I>a</I>-dicarboxylic acid

> <PUBCHEM_IUPAC_NAME>
(2S,3R,4S,4aR,6aR,6bS,8aS,12aS,14aR,14bR)-2,3-dihydroxy-4,6a,6b,11,11,14b-hexamethyl-1,2,3,4a,5,6,7,8,9,10,12,12a,14,14a-tetradecahydropicene-4,8a-dicarboxylic acid

> <PUBCHEM_IUPAC_SYSTEMATIC_NAME>
(2S,3R,4S,4aR,6aR,6bS,8aS,12aS,14aR,14bR)-4,6a,6b,11,11,14b-hexamethyl-2,3-bis(oxidanyl)-1,2,3,4a,5,6,7,8,9,10,12,12a,14,14a-tetradecahydropicene-4,8a-dicarboxylic acid

> <PUBCHEM_IUPAC_TRADITIONAL_NAME>
(2S,3R,4S,4aR,6aR,6bS,8aS,12aS,14aR,14bR)-2,3-dihydroxy-4,6a,6b,11,11,14b-hexamethyl-1,2,3,4a,5,6,7,8,9,10,12,12a,14,14a-tetradecahydropicene-4,8a-dicarboxylic acid

> <PUBCHEM_IUPAC_INCHI>
InChI=1S/C30H46O6/c1-25(2)11-13-30(24(35)36)14-12-27(4)17(18(30)15-25)7-8-20-26(3)16-19(31)22(32)29(6,23(33)34)21(26)9-10-28(20,27)5/h7,18-22,31-32H,8-16H2,1-6H3,(H,33,34)(H,35,36)/t18-,19-,20+,21+,22-,26+,27+,28+,29-,30-/m0/s1

> <PUBCHEM_IUPAC_INCHIKEY>
IDGXIXSKISLYAC-WNTKNEGGSA-N

> <PUBCHEM_XLOGP3_AA>
5.8

> <PUBCHEM_EXACT_MASS>
502.32943918

> <PUBCHEM_MOLECULAR_FORMULA>
C30H46O6

> <PUBCHEM_MOLECULAR_WEIGHT>
502.7

> <PUBCHEM_OPENEYE_CAN_SMILES>
CC1(CCC2(CCC3(C(=CCC4C3(CCC5C4(CC(C(C5(C)C(=O)O)O)O)C)C)C2C1)C)C(=O)O)C

> <PUBCHEM_OPENEYE_ISO_SMILES>
C[C@@]12CC[C@@H]3[C@@]([C@H]1CC=C4[C@]2(CC[C@@]5([C@H]4CC(CC5)(C)C)C(=O)O)C)(C[C@@H]([C@@H]([C@@]3(C)C(=O)O)O)O)C

> <PUBCHEM_CACTVS_TPSA>
115

> <PUBCHEM_MONOISOTOPIC_WEIGHT>
502.32943918

> <PUBCHEM_TOTAL_CHARGE>
0

> <PUBCHEM_HEAVY_ATOM_COUNT>
36

> <PUBCHEM_ATOM_DEF_STEREO_COUNT>
10

> <PUBCHEM_ATOM_UDEF_STEREO_COUNT>
0

> <PUBCHEM_BOND_DEF_STEREO_COUNT>
0

> <PUBCHEM_BOND_UDEF_STEREO_COUNT>
0

> <PUBCHEM_ISOTOPIC_ATOM_COUNT>
0

> <PUBCHEM_COMPONENT_COUNT>
1

> <PUBCHEM_CACTVS_TAUTO_COUNT>
1

> <PUBCHEM_COORDINATE_TYPE>
1
5
255

> <PUBCHEM_BONDANNOTATIONS>
25  1  5
10  27  6
11  38  6
15  43  5
16  32  5
26  2  5
20  34  5
7  21  5
8  37  6
9  24  5

$$$$
