 
  -OEChem-10192103422D

 22 21  0     1  0  0  0  0  0999 V2000
    6.0010    1.0670    0.0000 O   0  0  0  0  0  0  0  0  0  0  0  0
    3.7690    0.9330    0.0000 O   0  0  0  0  0  0  0  0  0  0  0  0
    2.5369    0.0670    0.0000 O   0  0  0  0  0  0  0  0  0  0  0  0
    3.4030   -1.4330    0.0000 O   0  0  0  0  0  0  0  0  0  0  0  0
    5.1350    0.5670    0.0000 C   0  0  0  0  0  0  0  0  0  0  0  0
    4.2690    0.0670    0.0000 C   0  0  3  0  0  0  0  0  0  0  0  0
    4.6350    1.4330    0.0000 C   0  0  0  0  0  0  0  0  0  0  0  0
    5.6350   -0.2990    0.0000 C   0  0  0  0  0  0  0  0  0  0  0  0
    4.7690   -0.7990    0.0000 C   0  0  0  0  0  0  0  0  0  0  0  0
    3.4030   -0.4330    0.0000 C   0  0  0  0  0  0  0  0  0  0  0  0
    5.1720    1.7430    0.0000 H   0  0  0  0  0  0  0  0  0  0  0  0
    4.3250    1.9700    0.0000 H   0  0  0  0  0  0  0  0  0  0  0  0
    4.0981    1.1230    0.0000 H   0  0  0  0  0  0  0  0  0  0  0  0
    5.0981   -0.6090    0.0000 H   0  0  0  0  0  0  0  0  0  0  0  0
    5.9450   -0.8360    0.0000 H   0  0  0  0  0  0  0  0  0  0  0  0
    6.1720    0.0110    0.0000 H   0  0  0  0  0  0  0  0  0  0  0  0
    4.2320   -1.1090    0.0000 H   0  0  0  0  0  0  0  0  0  0  0  0
    5.0790   -1.3360    0.0000 H   0  0  0  0  0  0  0  0  0  0  0  0
    5.3059   -0.4890    0.0000 H   0  0  0  0  0  0  0  0  0  0  0  0
    6.5380    0.7570    0.0000 H   0  0  0  0  0  0  0  0  0  0  0  0
    3.1490    0.9330    0.0000 H   0  0  0  0  0  0  0  0  0  0  0  0
    2.0000   -0.2430    0.0000 H   0  0  0  0  0  0  0  0  0  0  0  0
  1  5  1  0  0  0  0
  1 20  1  0  0  0  0
  2  6  1  0  0  0  0
  2 21  1  0  0  0  0
  3 10  1  0  0  0  0
  3 22  1  0  0  0  0
  4 10  2  0  0  0  0
  5  6  1  0  0  0  0
  5  7  1  0  0  0  0
  5  8  1  0  0  0  0
  6  9  1  0  0  0  0
  6 10  1  0  0  0  0
  7 11  1  0  0  0  0
  7 12  1  0  0  0  0
  7 13  1  0  0  0  0
  8 14  1  0  0  0  0
  8 15  1  0  0  0  0
  8 16  1  0  0  0  0
  9 17  1  0  0  0  0
  9 18  1  0  0  0  0
  9 19  1  0  0  0  0
M  END
> <PUBCHEM_COMPOUND_CID>
12431725

> <PUBCHEM_COMPOUND_CANONICALIZED>
1

> <PUBCHEM_CACTVS_COMPLEXITY>
152

> <PUBCHEM_CACTVS_HBOND_ACCEPTOR>
4

> <PUBCHEM_CACTVS_HBOND_DONOR>
3

> <PUBCHEM_CACTVS_ROTATABLE_BOND>
2

> <PUBCHEM_CACTVS_SUBSKEYS>
AAADccBgOAAAAAAAAAAAAAAAAAAAAAAAAAAAAAAAAAAAAAAAAAAAGgAACAAADESAgAACCAAAAgAIAACQCAIAAAAAAAAAAAFAAAABABQAAAAAQAAFIAABAAAAAAAIgAAAAAAAAAAAAAAAAAAAAAAAAAAAAA==

> <PUBCHEM_IUPAC_OPENEYE_NAME>
2,3-dihydroxy-2,3-dimethyl-butanoic acid

> <PUBCHEM_IUPAC_CAS_NAME>
2,3-dihydroxy-2,3-dimethylbutanoic acid

> <PUBCHEM_IUPAC_NAME_MARKUP>
2,3-dihydroxy-2,3-dimethylbutanoic acid

> <PUBCHEM_IUPAC_NAME>
2,3-dihydroxy-2,3-dimethylbutanoic acid

> <PUBCHEM_IUPAC_SYSTEMATIC_NAME>
2,3-dimethyl-2,3-bis(oxidanyl)butanoic acid

> <PUBCHEM_IUPAC_TRADITIONAL_NAME>
2,3-dihydroxy-2,3-dimethyl-butyric acid

> <PUBCHEM_IUPAC_INCHI>
InChI=1S/C6H12O4/c1-5(2,9)6(3,10)4(7)8/h9-10H,1-3H3,(H,7,8)

> <PUBCHEM_IUPAC_INCHIKEY>
KPZISZXYEHNDTC-UHFFFAOYSA-N

> <PUBCHEM_XLOGP3_AA>
-0.7

> <PUBCHEM_EXACT_MASS>
148.07355886

> <PUBCHEM_MOLECULAR_FORMULA>
C6H12O4

> <PUBCHEM_MOLECULAR_WEIGHT>
148.16

> <PUBCHEM_OPENEYE_CAN_SMILES>
CC(C)(C(C)(C(=O)O)O)O

> <PUBCHEM_OPENEYE_ISO_SMILES>
CC(C)(C(C)(C(=O)O)O)O

> <PUBCHEM_CACTVS_TPSA>
77.8

> <PUBCHEM_MONOISOTOPIC_WEIGHT>
148.07355886

> <PUBCHEM_TOTAL_CHARGE>
0

> <PUBCHEM_HEAVY_ATOM_COUNT>
10

> <PUBCHEM_ATOM_DEF_STEREO_COUNT>
0

> <PUBCHEM_ATOM_UDEF_STEREO_COUNT>
1

> <PUBCHEM_BOND_DEF_STEREO_COUNT>
0

> <PUBCHEM_BOND_UDEF_STEREO_COUNT>
0

> <PUBCHEM_ISOTOPIC_ATOM_COUNT>
0

> <PUBCHEM_COMPONENT_COUNT>
1

> <PUBCHEM_CACTVS_TAUTO_COUNT>
-1

> <PUBCHEM_COORDINATE_TYPE>
1
5
255

> <PUBCHEM_BONDANNOTATIONS>
6  9  3

$$$$
