 
  -OEChem-10192104292D

 57 57  0     1  0  0  0  0  0999 V2000
    7.2589    2.3762    0.0000 O   0  0  0  0  0  0  0  0  0  0  0  0
    7.8513    0.7486    0.0000 O   0  0  0  0  0  0  0  0  0  0  0  0
    6.0127   -3.0694    0.0000 O   0  0  0  0  0  0  0  0  0  0  0  0
    4.3708   -3.6211    0.0000 O   0  0  0  0  0  0  0  0  0  0  0  0
    5.5532    2.6770    0.0000 O   0  0  0  0  0  0  0  0  0  0  0  0
    6.7380   -0.5782    0.0000 O   0  0  0  0  0  0  0  0  0  0  0  0
    6.3558   -1.3717    0.0000 O   0  0  0  0  0  0  0  0  0  0  0  0
    3.0721   -2.4750    0.0000 O   0  0  0  0  0  0  0  0  0  0  0  0
    4.2059    0.7073    0.0000 C   0  0  3  0  0  0  0  0  0  0  0  0
    3.7720   -0.1936    0.0000 C   0  0  3  0  0  0  0  0  0  0  0  0
    3.7720    1.6083    0.0000 C   0  0  3  0  0  0  0  0  0  0  0  0
    2.7971   -0.4161    0.0000 C   0  0  3  0  0  0  0  0  0  0  0  0
    2.7971    1.8308    0.0000 C   0  0  0  0  0  0  0  0  0  0  0  0
    2.0153    0.2073    0.0000 C   0  0  0  0  0  0  0  0  0  0  0  0
    5.2059    0.7073    0.0000 C   0  0  0  0  0  0  0  0  0  0  0  0
    2.0153    1.2074    0.0000 C   0  0  0  0  0  0  0  0  0  0  0  0
    4.3955   -0.9755    0.0000 C   0  0  0  0  0  0  0  0  0  0  0  0
    3.7471    2.6080    0.0000 C   0  0  0  0  0  0  0  0  0  0  0  0
    2.0000   -1.0200    0.0000 C   0  0  0  0  0  0  0  0  0  0  0  0
    6.1456    1.0494    0.0000 C   0  0  0  0  0  0  0  0  0  0  0  0
    4.7140   -1.9234    0.0000 C   0  0  0  0  0  0  0  0  0  0  0  0
    2.8689    3.0863    0.0000 C   0  0  0  0  0  0  0  0  0  0  0  0
    2.8439    4.0860    0.0000 C   0  0  0  0  0  0  0  0  0  0  0  0
    6.3192    2.0342    0.0000 C   0  0  0  0  0  0  0  0  0  0  0  0
    6.9116    0.4066    0.0000 C   0  0  0  0  0  0  0  0  0  0  0  0
    5.6942   -2.1215    0.0000 C   0  0  0  0  0  0  0  0  0  0  0  0
    4.0523   -2.6732    0.0000 C   0  0  0  0  0  0  0  0  0  0  0  0
    4.5358    0.1824    0.0000 H   0  0  0  0  0  0  0  0  0  0  0  0
    3.5672   -0.7788    0.0000 H   0  0  0  0  0  0  0  0  0  0  0  0
    4.3747    1.7538    0.0000 H   0  0  0  0  0  0  0  0  0  0  0  0
    3.0591   -0.9780    0.0000 H   0  0  0  0  0  0  0  0  0  0  0  0
    3.0661    2.3894    0.0000 H   0  0  0  0  0  0  0  0  0  0  0  0
    2.3124    2.2174    0.0000 H   0  0  0  0  0  0  0  0  0  0  0  0
    1.4108    0.3453    0.0000 H   0  0  0  0  0  0  0  0  0  0  0  0
    1.7462   -0.3513    0.0000 H   0  0  0  0  0  0  0  0  0  0  0  0
    4.9603    0.1381    0.0000 H   0  0  0  0  0  0  0  0  0  0  0  0
    5.0982    1.3179    0.0000 H   0  0  0  0  0  0  0  0  0  0  0  0
    1.7462    1.7660    0.0000 H   0  0  0  0  0  0  0  0  0  0  0  0
    1.4108    1.0694    0.0000 H   0  0  0  0  0  0  0  0  0  0  0  0
    5.0134   -1.0269    0.0000 H   0  0  0  0  0  0  0  0  0  0  0  0
    3.8510   -1.2720    0.0000 H   0  0  0  0  0  0  0  0  0  0  0  0
    4.3602    2.5156    0.0000 H   0  0  0  0  0  0  0  0  0  0  0  0
    3.9446    3.1957    0.0000 H   0  0  0  0  0  0  0  0  0  0  0  0
    1.6256   -0.5258    0.0000 H   0  0  0  0  0  0  0  0  0  0  0  0
    1.5058   -1.3944    0.0000 H   0  0  0  0  0  0  0  0  0  0  0  0
    2.3744   -1.5142    0.0000 H   0  0  0  0  0  0  0  0  0  0  0  0
    5.6706    1.4479    0.0000 H   0  0  0  0  0  0  0  0  0  0  0  0
    5.1243   -1.4585    0.0000 H   0  0  0  0  0  0  0  0  0  0  0  0
    2.2558    3.1787    0.0000 H   0  0  0  0  0  0  0  0  0  0  0  0
    2.6714    2.4986    0.0000 H   0  0  0  0  0  0  0  0  0  0  0  0
    3.4637    4.1014    0.0000 H   0  0  0  0  0  0  0  0  0  0  0  0
    2.8285    4.7058    0.0000 H   0  0  0  0  0  0  0  0  0  0  0  0
    2.2241    4.0705    0.0000 H   0  0  0  0  0  0  0  0  0  0  0  0
    7.7339    1.9777    0.0000 H   0  0  0  0  0  0  0  0  0  0  0  0
    8.3263    0.3501    0.0000 H   0  0  0  0  0  0  0  0  0  0  0  0
    6.6204   -3.1923    0.0000 H   0  0  0  0  0  0  0  0  0  0  0  0
    3.9605   -4.0860    0.0000 H   0  0  0  0  0  0  0  0  0  0  0  0
  1 24  1  0  0  0  0
  1 54  1  0  0  0  0
  2 25  1  0  0  0  0
  2 55  1  0  0  0  0
  3 26  1  0  0  0  0
  3 56  1  0  0  0  0
  4 27  1  0  0  0  0
  4 57  1  0  0  0  0
  5 24  2  0  0  0  0
  6 25  2  0  0  0  0
  7 26  2  0  0  0  0
  8 27  2  0  0  0  0
  9 10  1  0  0  0  0
  9 11  1  0  0  0  0
  9 15  1  0  0  0  0
  9 28  1  0  0  0  0
 10 12  1  0  0  0  0
 10 17  1  0  0  0  0
 10 29  1  0  0  0  0
 11 13  1  0  0  0  0
 11 18  1  0  0  0  0
 11 30  1  0  0  0  0
 12 14  1  0  0  0  0
 12 19  1  0  0  0  0
 12 31  1  0  0  0  0
 13 16  1  0  0  0  0
 13 32  1  0  0  0  0
 13 33  1  0  0  0  0
 14 16  1  0  0  0  0
 14 34  1  0  0  0  0
 14 35  1  0  0  0  0
 15 20  1  0  0  0  0
 15 36  1  0  0  0  0
 15 37  1  0  0  0  0
 16 38  1  0  0  0  0
 16 39  1  0  0  0  0
 17 21  1  0  0  0  0
 17 40  1  0  0  0  0
 17 41  1  0  0  0  0
 18 22  1  0  0  0  0
 18 42  1  0  0  0  0
 18 43  1  0  0  0  0
 19 44  1  0  0  0  0
 19 45  1  0  0  0  0
 19 46  1  0  0  0  0
 20 24  1  0  0  0  0
 20 25  1  0  0  0  0
 20 47  1  0  0  0  0
 21 26  1  0  0  0  0
 21 27  1  0  0  0  0
 21 48  1  0  0  0  0
 22 23  1  0  0  0  0
 22 49  1  0  0  0  0
 22 50  1  0  0  0  0
 23 51  1  0  0  0  0
 23 52  1  0  0  0  0
 23 53  1  0  0  0  0
M  END
> <PUBCHEM_COMPOUND_CID>
68417320

> <PUBCHEM_COMPOUND_CANONICALIZED>
1

> <PUBCHEM_CACTVS_COMPLEXITY>
530

> <PUBCHEM_CACTVS_HBOND_ACCEPTOR>
8

> <PUBCHEM_CACTVS_HBOND_DONOR>
4

> <PUBCHEM_CACTVS_ROTATABLE_BOND>
10

> <PUBCHEM_CACTVS_SUBSKEYS>
AAADceB4PAAAAAAAAAAAAAAAAAAAAAAAAAAAAAAABgAAAAAAAAAAGgAACAAADQCAgAACCAAAAgAIAACQCAAAAAAAAAAAAAEAAAAAABYIAAAAQAAFIAAAAAGIyPCOgAAAAAAAAAAAAAAAAAAAAAAAAAAAAA==

> <PUBCHEM_IUPAC_OPENEYE_NAME>
2-[[2-(2,2-dicarboxyethyl)-7-methyl-3-propyl-cycloheptyl]methyl]propanedioic acid

> <PUBCHEM_IUPAC_CAS_NAME>
2-[[2-(2,2-dicarboxyethyl)-7-methyl-3-propylcycloheptyl]methyl]propanedioic acid

> <PUBCHEM_IUPAC_NAME_MARKUP>
2-[[2-(2,2-dicarboxyethyl)-7-methyl-3-propylcycloheptyl]methyl]propanedioic acid

> <PUBCHEM_IUPAC_NAME>
2-[[2-(2,2-dicarboxyethyl)-7-methyl-3-propylcycloheptyl]methyl]propanedioic acid

> <PUBCHEM_IUPAC_SYSTEMATIC_NAME>
2-[[2-(2-carboxy-3-oxidanyl-3-oxidanylidene-propyl)-7-methyl-3-propyl-cycloheptyl]methyl]propanedioic acid

> <PUBCHEM_IUPAC_TRADITIONAL_NAME>
2-[[2-(2,2-dicarboxyethyl)-7-methyl-3-propyl-cycloheptyl]methyl]malonic acid

> <PUBCHEM_IUPAC_INCHI>
InChI=1S/C19H30O8/c1-3-5-11-7-4-6-10(2)12(8-14(16(20)21)17(22)23)13(11)9-15(18(24)25)19(26)27/h10-15H,3-9H2,1-2H3,(H,20,21)(H,22,23)(H,24,25)(H,26,27)

> <PUBCHEM_IUPAC_INCHIKEY>
XBQXUVZCMCHOSN-UHFFFAOYSA-N

> <PUBCHEM_XLOGP3_AA>
4.1

> <PUBCHEM_EXACT_MASS>
386.19406791

> <PUBCHEM_MOLECULAR_FORMULA>
C19H30O8

> <PUBCHEM_MOLECULAR_WEIGHT>
386.4

> <PUBCHEM_OPENEYE_CAN_SMILES>
CCCC1CCCC(C(C1CC(C(=O)O)C(=O)O)CC(C(=O)O)C(=O)O)C

> <PUBCHEM_OPENEYE_ISO_SMILES>
CCCC1CCCC(C(C1CC(C(=O)O)C(=O)O)CC(C(=O)O)C(=O)O)C

> <PUBCHEM_CACTVS_TPSA>
149

> <PUBCHEM_MONOISOTOPIC_WEIGHT>
386.19406791

> <PUBCHEM_TOTAL_CHARGE>
0

> <PUBCHEM_HEAVY_ATOM_COUNT>
27

> <PUBCHEM_ATOM_DEF_STEREO_COUNT>
0

> <PUBCHEM_ATOM_UDEF_STEREO_COUNT>
4

> <PUBCHEM_BOND_DEF_STEREO_COUNT>
0

> <PUBCHEM_BOND_UDEF_STEREO_COUNT>
0

> <PUBCHEM_ISOTOPIC_ATOM_COUNT>
0

> <PUBCHEM_COMPONENT_COUNT>
1

> <PUBCHEM_CACTVS_TAUTO_COUNT>
-1

> <PUBCHEM_COORDINATE_TYPE>
1
5
255

> <PUBCHEM_BONDANNOTATIONS>
10  17  3
11  18  3
12  19  3
9  15  3

$$$$
