 
  -OEChem-10192104172D

 32 32  0     1  0  0  0  0  0999 V2000
    3.4945   -2.6133    0.0000 S   0  0  0  0  0  0  0  0  0  0  0  0
    4.0823   -1.8043    0.0000 P   0  0  3  0  0  0  0  0  0  0  0  0
    4.8913   -1.2165    0.0000 O   0  0  0  0  0  0  0  0  0  0  0  0
    4.6701   -2.6133    0.0000 O   0  0  0  0  0  0  0  0  0  0  0  0
    3.4013    1.4571    0.0000 O   0  0  0  0  0  0  0  0  0  0  0  0
    2.0000    0.4391    0.0000 O   0  0  0  0  0  0  0  0  0  0  0  0
    3.5823   -0.2654    0.0000 C   0  0  3  0  0  0  0  0  0  0  0  0
    4.5823   -0.2654    0.0000 C   0  0  3  0  0  0  0  0  0  0  0  0
    3.2733   -1.2165    0.0000 C   0  0  0  0  0  0  0  0  0  0  0  0
    5.1701    0.5436    0.0000 C   0  0  0  0  0  0  0  0  0  0  0  0
    2.9945    0.5436    0.0000 C   0  0  0  0  0  0  0  0  0  0  0  0
    2.3222   -1.5255    0.0000 C   0  0  0  0  0  0  0  0  0  0  0  0
    5.6646   -2.5088    0.0000 C   0  0  0  0  0  0  0  0  0  0  0  0
    2.8135    2.2662    0.0000 C   0  0  0  0  0  0  0  0  0  0  0  0
    3.2202    3.1797    0.0000 C   0  0  0  0  0  0  0  0  0  0  0  0
    2.9699   -0.3624    0.0000 H   0  0  0  0  0  0  0  0  0  0  0  0
    5.1947   -0.3624    0.0000 H   0  0  0  0  0  0  0  0  0  0  0  0
    5.6717    0.1792    0.0000 H   0  0  0  0  0  0  0  0  0  0  0  0
    5.5345    1.0452    0.0000 H   0  0  0  0  0  0  0  0  0  0  0  0
    4.6685    0.9080    0.0000 H   0  0  0  0  0  0  0  0  0  0  0  0
    2.1306   -0.9359    0.0000 H   0  0  0  0  0  0  0  0  0  0  0  0
    1.7326   -1.7171    0.0000 H   0  0  0  0  0  0  0  0  0  0  0  0
    2.5138   -2.1152    0.0000 H   0  0  0  0  0  0  0  0  0  0  0  0
    3.7467   -3.1797    0.0000 H   0  0  0  0  0  0  0  0  0  0  0  0
    5.7294   -3.1254    0.0000 H   0  0  0  0  0  0  0  0  0  0  0  0
    6.2812   -2.4440    0.0000 H   0  0  0  0  0  0  0  0  0  0  0  0
    5.5998   -1.8922    0.0000 H   0  0  0  0  0  0  0  0  0  0  0  0
    2.2995    2.6128    0.0000 H   0  0  0  0  0  0  0  0  0  0  0  0
    2.3828    1.8202    0.0000 H   0  0  0  0  0  0  0  0  0  0  0  0
    3.7866    2.9275    0.0000 H   0  0  0  0  0  0  0  0  0  0  0  0
    3.4724    3.7461    0.0000 H   0  0  0  0  0  0  0  0  0  0  0  0
    2.6538    3.4319    0.0000 H   0  0  0  0  0  0  0  0  0  0  0  0
  1  2  1  0  0  0  0
  1 24  1  0  0  0  0
  2  3  1  0  0  0  0
  2  4  1  0  0  0  0
  2  9  2  0  0  0  0
  3  8  1  0  0  0  0
  4 13  1  0  0  0  0
  5 11  1  0  0  0  0
  5 14  1  0  0  0  0
  6 11  2  0  0  0  0
  7  8  1  0  0  0  0
  7  9  1  0  0  0  0
  7 11  1  0  0  0  0
  7 16  1  0  0  0  0
  8 10  1  0  0  0  0
  8 17  1  0  0  0  0
  9 12  1  0  0  0  0
 10 18  1  0  0  0  0
 10 19  1  0  0  0  0
 10 20  1  0  0  0  0
 12 21  1  0  0  0  0
 12 22  1  0  0  0  0
 12 23  1  0  0  0  0
 13 25  1  0  0  0  0
 13 26  1  0  0  0  0
 13 27  1  0  0  0  0
 14 15  1  0  0  0  0
 14 28  1  0  0  0  0
 14 29  1  0  0  0  0
 15 30  1  0  0  0  0
 15 31  1  0  0  0  0
 15 32  1  0  0  0  0
M  END
> <PUBCHEM_COMPOUND_CID>
129808456

> <PUBCHEM_COMPOUND_CANONICALIZED>
1

> <PUBCHEM_CACTVS_COMPLEXITY>
315

> <PUBCHEM_CACTVS_HBOND_ACCEPTOR>
5

> <PUBCHEM_CACTVS_HBOND_DONOR>
1

> <PUBCHEM_CACTVS_ROTATABLE_BOND>
4

> <PUBCHEM_CACTVS_SUBSKEYS>
AAADceBwOAJAAAAAAAAAAAAAAAAAAQAAAAAAAAAAAAAAAAAAAAAAGggAACAADRSggAICCAAABRAIAACQCAAAAAAAAAAAAAEAAAAAABYAAAACAAAFIAAAAAAAAAAKAAAAAAAAAAAAAAAAAAAAAAAAAAAAAA==

> <PUBCHEM_IUPAC_OPENEYE_NAME>
ethyl 2-methoxy-3,5-dimethyl-2-sulfanyl-1-oxa-2lambda5-phosphacyclopent-2-ene-4-carboxylate

> <PUBCHEM_IUPAC_CAS_NAME>
2-mercapto-2-methoxy-3,5-dimethyl-1-oxa-2lambda5-phosphacyclopent-2-ene-4-carboxylic acid ethyl ester

> <PUBCHEM_IUPAC_NAME_MARKUP>
ethyl 2-methoxy-3,5-dimethyl-2-sulfanyl-1-oxa-2&lambda;<SUP>5</SUP>-phosphacyclopent-2-ene-4-carboxylate

> <PUBCHEM_IUPAC_NAME>
ethyl 2-methoxy-3,5-dimethyl-2-sulfanyl-1-oxa-2lambda5-phosphacyclopent-2-ene-4-carboxylate

> <PUBCHEM_IUPAC_SYSTEMATIC_NAME>
ethyl 2-methoxy-3,5-dimethyl-2-sulfanyl-1-oxa-2lambda5-phosphacyclopent-2-ene-4-carboxylate

> <PUBCHEM_IUPAC_TRADITIONAL_NAME>
2-mercapto-2-methoxy-3,5-dimethyl-1-oxa-2lambda5-phosphacyclopent-2-ene-4-carboxylic acid ethyl ester

> <PUBCHEM_IUPAC_INCHI>
InChI=1S/C9H17O4PS/c1-5-12-9(10)8-6(2)13-14(15,11-4)7(8)3/h6,8,15H,5H2,1-4H3

> <PUBCHEM_IUPAC_INCHIKEY>
OQUKOHAMPXMKEL-UHFFFAOYSA-N

> <PUBCHEM_XLOGP3_AA>
0.5

> <PUBCHEM_EXACT_MASS>
252.05851719

> <PUBCHEM_MOLECULAR_FORMULA>
C9H17O4PS

> <PUBCHEM_MOLECULAR_WEIGHT>
252.27

> <PUBCHEM_OPENEYE_CAN_SMILES>
CCOC(=O)C1C(OP(=C1C)(OC)S)C

> <PUBCHEM_OPENEYE_ISO_SMILES>
CCOC(=O)C1C(OP(=C1C)(OC)S)C

> <PUBCHEM_CACTVS_TPSA>
45.8

> <PUBCHEM_MONOISOTOPIC_WEIGHT>
252.05851719

> <PUBCHEM_TOTAL_CHARGE>
0

> <PUBCHEM_HEAVY_ATOM_COUNT>
15

> <PUBCHEM_ATOM_DEF_STEREO_COUNT>
0

> <PUBCHEM_ATOM_UDEF_STEREO_COUNT>
3

> <PUBCHEM_BOND_DEF_STEREO_COUNT>
0

> <PUBCHEM_BOND_UDEF_STEREO_COUNT>
0

> <PUBCHEM_ISOTOPIC_ATOM_COUNT>
0

> <PUBCHEM_COMPONENT_COUNT>
1

> <PUBCHEM_CACTVS_TAUTO_COUNT>
-1

> <PUBCHEM_COORDINATE_TYPE>
1
5
255

> <PUBCHEM_BONDANNOTATIONS>
2  1  3
7  11  3
8  10  3

$$$$
