 
  -OEChem-10192103582D

 36 37  0     0  0  0  0  0  0999 V2000
    6.0682   -1.4827    0.0000 O   0  0  0  0  0  0  0  0  0  0  0  0
    6.0682    1.5173    0.0000 O   0  0  0  0  0  0  0  0  0  0  0  0
   12.1304    0.0173    0.0000 O   0  0  0  0  0  0  0  0  0  0  0  0
    2.5381   -1.5068    0.0000 O   0  0  0  0  0  0  0  0  0  0  0  0
   11.2644    1.5173    0.0000 O   0  0  0  0  0  0  0  0  0  0  0  0
    7.8003    0.5173    0.0000 C   0  0  0  0  0  0  0  0  0  0  0  0
    8.6663    0.0173    0.0000 C   0  0  0  0  0  0  0  0  0  0  0  0
    6.9343    0.0173    0.0000 C   0  0  0  0  0  0  0  0  0  0  0  0
    9.5323    0.5173    0.0000 C   0  0  0  0  0  0  0  0  0  0  0  0
    6.9343   -0.9827    0.0000 C   0  0  0  0  0  0  0  0  0  0  0  0
    6.0682    0.5173    0.0000 C   0  0  0  0  0  0  0  0  0  0  0  0
    5.2022    0.0173    0.0000 C   0  0  0  0  0  0  0  0  0  0  0  0
   10.3984    0.0173    0.0000 C   0  0  0  0  0  0  0  0  0  0  0  0
    5.2022   -0.9827    0.0000 C   0  0  0  0  0  0  0  0  0  0  0  0
    7.8003   -1.4827    0.0000 C   0  0  0  0  0  0  0  0  0  0  0  0
    4.3083    0.5520    0.0000 C   0  0  0  0  0  0  0  0  0  0  0  0
    4.3083   -1.5173    0.0000 C   0  0  0  0  0  0  0  0  0  0  0  0
   11.2644    0.5173    0.0000 C   0  0  0  0  0  0  0  0  0  0  0  0
    3.4022    0.0381    0.0000 C   0  0  0  0  0  0  0  0  0  0  0  0
    3.4022   -1.0035    0.0000 C   0  0  0  0  0  0  0  0  0  0  0  0
    8.1988    0.9923    0.0000 H   0  0  0  0  0  0  0  0  0  0  0  0
    7.4018    0.9923    0.0000 H   0  0  0  0  0  0  0  0  0  0  0  0
    8.2678   -0.4576    0.0000 H   0  0  0  0  0  0  0  0  0  0  0  0
    9.0649   -0.4576    0.0000 H   0  0  0  0  0  0  0  0  0  0  0  0
    9.9309    0.9923    0.0000 H   0  0  0  0  0  0  0  0  0  0  0  0
    9.1338    0.9923    0.0000 H   0  0  0  0  0  0  0  0  0  0  0  0
    9.9998   -0.4576    0.0000 H   0  0  0  0  0  0  0  0  0  0  0  0
   10.7969   -0.4576    0.0000 H   0  0  0  0  0  0  0  0  0  0  0  0
    7.4903   -2.0196    0.0000 H   0  0  0  0  0  0  0  0  0  0  0  0
    8.3372   -1.7927    0.0000 H   0  0  0  0  0  0  0  0  0  0  0  0
    8.1103   -0.9457    0.0000 H   0  0  0  0  0  0  0  0  0  0  0  0
    4.3154    1.1720    0.0000 H   0  0  0  0  0  0  0  0  0  0  0  0
    4.3154   -2.1373    0.0000 H   0  0  0  0  0  0  0  0  0  0  0  0
    2.8665    0.3502    0.0000 H   0  0  0  0  0  0  0  0  0  0  0  0
   12.6674    0.3273    0.0000 H   0  0  0  0  0  0  0  0  0  0  0  0
    2.0000   -1.1989    0.0000 H   0  0  0  0  0  0  0  0  0  0  0  0
  1 10  1  0  0  0  0
  1 14  1  0  0  0  0
  2 11  2  0  0  0  0
  3 18  1  0  0  0  0
  3 35  1  0  0  0  0
  4 20  1  0  0  0  0
  4 36  1  0  0  0  0
  5 18  2  0  0  0  0
  6  7  1  0  0  0  0
  6  8  1  0  0  0  0
  6 21  1  0  0  0  0
  6 22  1  0  0  0  0
  7  9  1  0  0  0  0
  7 23  1  0  0  0  0
  7 24  1  0  0  0  0
  8 10  2  0  0  0  0
  8 11  1  0  0  0  0
  9 13  1  0  0  0  0
  9 25  1  0  0  0  0
  9 26  1  0  0  0  0
 10 15  1  0  0  0  0
 11 12  1  0  0  0  0
 12 14  2  0  0  0  0
 12 16  1  0  0  0  0
 13 18  1  0  0  0  0
 13 27  1  0  0  0  0
 13 28  1  0  0  0  0
 14 17  1  0  0  0  0
 15 29  1  0  0  0  0
 15 30  1  0  0  0  0
 15 31  1  0  0  0  0
 16 19  2  0  0  0  0
 16 32  1  0  0  0  0
 17 20  2  0  0  0  0
 17 33  1  0  0  0  0
 19 20  1  0  0  0  0
 19 34  1  0  0  0  0
M  END
> <PUBCHEM_COMPOUND_CID>
14844863

> <PUBCHEM_COMPOUND_CANONICALIZED>
1

> <PUBCHEM_CACTVS_COMPLEXITY>
426

> <PUBCHEM_CACTVS_HBOND_ACCEPTOR>
5

> <PUBCHEM_CACTVS_HBOND_DONOR>
2

> <PUBCHEM_CACTVS_ROTATABLE_BOND>
5

> <PUBCHEM_CACTVS_SUBSKEYS>
AAADceBwOAAAAAAAAAAAAAAAAAAAAAAAAAAwQAAAAAAAAACBAAAAGgAACAAADASAmAAyDoAABgCIAqDSCAACCAAkIAAIiAEGCMgMJzaGNRqCeWCl4BUIuYeI7OzOIAAACAAIAABAAAAQABAAAAAAAAAAAA==

> <PUBCHEM_IUPAC_OPENEYE_NAME>
5-(7-hydroxy-2-methyl-4-oxo-chromen-3-yl)pentanoic acid

> <PUBCHEM_IUPAC_CAS_NAME>
5-(7-hydroxy-2-methyl-4-oxo-1-benzopyran-3-yl)pentanoic acid

> <PUBCHEM_IUPAC_NAME_MARKUP>
5-(7-hydroxy-2-methyl-4-oxochromen-3-yl)pentanoic acid

> <PUBCHEM_IUPAC_NAME>
5-(7-hydroxy-2-methyl-4-oxochromen-3-yl)pentanoic acid

> <PUBCHEM_IUPAC_SYSTEMATIC_NAME>
5-(2-methyl-7-oxidanyl-4-oxidanylidene-chromen-3-yl)pentanoic acid

> <PUBCHEM_IUPAC_TRADITIONAL_NAME>
5-(7-hydroxy-4-keto-2-methyl-chromen-3-yl)valeric acid

> <PUBCHEM_IUPAC_INCHI>
InChI=1S/C15H16O5/c1-9-11(4-2-3-5-14(17)18)15(19)12-7-6-10(16)8-13(12)20-9/h6-8,16H,2-5H2,1H3,(H,17,18)

> <PUBCHEM_IUPAC_INCHIKEY>
HIORMVBRFWZIEA-UHFFFAOYSA-N

> <PUBCHEM_XLOGP3>
2.1

> <PUBCHEM_EXACT_MASS>
276.09977361

> <PUBCHEM_MOLECULAR_FORMULA>
C15H16O5

> <PUBCHEM_MOLECULAR_WEIGHT>
276.28

> <PUBCHEM_OPENEYE_CAN_SMILES>
CC1=C(C(=O)C2=C(O1)C=C(C=C2)O)CCCCC(=O)O

> <PUBCHEM_OPENEYE_ISO_SMILES>
CC1=C(C(=O)C2=C(O1)C=C(C=C2)O)CCCCC(=O)O

> <PUBCHEM_CACTVS_TPSA>
83.8

> <PUBCHEM_MONOISOTOPIC_WEIGHT>
276.09977361

> <PUBCHEM_TOTAL_CHARGE>
0

> <PUBCHEM_HEAVY_ATOM_COUNT>
20

> <PUBCHEM_ATOM_DEF_STEREO_COUNT>
0

> <PUBCHEM_ATOM_UDEF_STEREO_COUNT>
0

> <PUBCHEM_BOND_DEF_STEREO_COUNT>
0

> <PUBCHEM_BOND_UDEF_STEREO_COUNT>
0

> <PUBCHEM_ISOTOPIC_ATOM_COUNT>
0

> <PUBCHEM_COMPONENT_COUNT>
1

> <PUBCHEM_CACTVS_TAUTO_COUNT>
-1

> <PUBCHEM_COORDINATE_TYPE>
1
5
255

> <PUBCHEM_BONDANNOTATIONS>
1  10  8
1  14  8
11  12  8
12  14  8
12  16  8
14  17  8
16  19  8
17  20  8
19  20  8
8  10  8
8  11  8

$$$$
