 
  -OEChem-10192103372D

 83 86  0     1  0  0  0  0  0999 V2000
    5.9019   -1.3960    0.0000 O   0  0  0  0  0  0  0  0  0  0  0  0
    2.5896   -1.7561    0.0000 O   0  0  0  0  0  0  0  0  0  0  0  0
    3.0106   -3.0515    0.0000 O   0  0  0  0  0  0  0  0  0  0  0  0
    5.0929    3.1918    0.0000 O   0  0  0  0  0  0  0  0  0  0  0  0
    6.8249    2.1918    0.0000 O   0  0  0  0  0  0  0  0  0  0  0  0
    3.3608    2.1918    0.0000 O   0  0  0  0  0  0  0  0  0  0  0  0
    6.8076   -5.1922    0.0000 O   0  0  0  0  0  0  0  0  0  0  0  0
    3.6430   -6.6012    0.0000 O   0  0  0  0  0  0  0  0  0  0  0  0
    5.6320   -6.8102    0.0000 O   0  0  0  0  0  0  0  0  0  0  0  0
    5.0929    5.1918    0.0000 O   0  0  0  0  0  0  0  0  0  0  0  0
    7.6910    3.6918    0.0000 O   0  0  0  0  0  0  0  0  0  0  0  0
    9.4230    4.6918    0.0000 O   0  0  0  0  0  0  0  0  0  0  0  0
    9.4230    6.6918    0.0000 O   0  0  0  0  0  0  0  0  0  0  0  0
    4.2839   -1.3960    0.0000 C   0  0  2  0  0  0  0  0  0  0  0  0
    4.5929   -2.3470    0.0000 C   0  0  2  0  0  0  0  0  0  0  0  0
    5.0929   -0.8082    0.0000 C   0  0  2  0  0  0  0  0  0  0  0  0
    5.5929   -2.3470    0.0000 C   0  0  0  0  0  0  0  0  0  0  0  0
    3.3328   -1.0870    0.0000 C   0  0  0  0  0  0  0  0  0  0  0  0
    5.0929    0.1918    0.0000 C   0  0  0  0  0  0  0  0  0  0  0  0
    4.0051   -3.1560    0.0000 C   0  0  0  0  0  0  0  0  0  0  0  0
    4.2268    0.6918    0.0000 C   0  0  0  0  0  0  0  0  0  0  0  0
    5.9589    0.6918    0.0000 C   0  0  0  0  0  0  0  0  0  0  0  0
    4.4118   -4.0696    0.0000 C   0  0  0  0  0  0  0  0  0  0  0  0
    5.9589    1.6918    0.0000 C   0  0  0  0  0  0  0  0  0  0  0  0
    4.2268    1.6918    0.0000 C   0  0  0  0  0  0  0  0  0  0  0  0
    5.0929    2.1918    0.0000 C   0  0  0  0  0  0  0  0  0  0  0  0
    3.8240   -4.8786    0.0000 C   0  0  0  0  0  0  0  0  0  0  0  0
    5.4064   -4.1741    0.0000 C   0  0  0  0  0  0  0  0  0  0  0  0
    5.9589    3.6918    0.0000 C   0  0  1  0  0  0  0  0  0  0  0  0
    5.8131   -5.0877    0.0000 C   0  0  0  0  0  0  0  0  0  0  0  0
    4.2308   -5.7922    0.0000 C   0  0  0  0  0  0  0  0  0  0  0  0
    5.2253   -5.8967    0.0000 C   0  0  0  0  0  0  0  0  0  0  0  0
    5.9589    4.6918    0.0000 C   0  0  2  0  0  0  0  0  0  0  0  0
    6.8249    3.1918    0.0000 C   0  0  0  0  0  0  0  0  0  0  0  0
    6.8249    5.1918    0.0000 C   0  0  0  0  0  0  0  0  0  0  0  0
    7.6910    1.6918    0.0000 C   0  0  0  0  0  0  0  0  0  0  0  0
    2.4948    1.6918    0.0000 C   0  0  0  0  0  0  0  0  0  0  0  0
    7.6910    4.6918    0.0000 C   0  0  0  0  0  0  0  0  0  0  0  0
    6.8249    6.1918    0.0000 C   0  0  0  0  0  0  0  0  0  0  0  0
    7.2143   -6.1057    0.0000 C   0  0  0  0  0  0  0  0  0  0  0  0
    2.6485   -6.4966    0.0000 C   0  0  0  0  0  0  0  0  0  0  0  0
    8.5570    5.1918    0.0000 C   0  0  0  0  0  0  0  0  0  0  0  0
    7.6910    6.6918    0.0000 C   0  0  0  0  0  0  0  0  0  0  0  0
    8.5570    6.1918    0.0000 C   0  0  0  0  0  0  0  0  0  0  0  0
   10.2890    5.1918    0.0000 C   0  0  0  0  0  0  0  0  0  0  0  0
    4.1869   -0.7836    0.0000 H   0  0  0  0  0  0  0  0  0  0  0  0
    3.9805   -2.2500    0.0000 H   0  0  0  0  0  0  0  0  0  0  0  0
    5.6453   -0.5267    0.0000 H   0  0  0  0  0  0  0  0  0  0  0  0
    5.5281   -2.9636    0.0000 H   0  0  0  0  0  0  0  0  0  0  0  0
    6.1993   -2.4759    0.0000 H   0  0  0  0  0  0  0  0  0  0  0  0
    3.6239   -0.5395    0.0000 H   0  0  0  0  0  0  0  0  0  0  0  0
    2.8442   -0.7052    0.0000 H   0  0  0  0  0  0  0  0  0  0  0  0
    3.6899    0.3818    0.0000 H   0  0  0  0  0  0  0  0  0  0  0  0
    6.4958    0.3818    0.0000 H   0  0  0  0  0  0  0  0  0  0  0  0
    2.0000   -1.5645    0.0000 H   0  0  0  0  0  0  0  0  0  0  0  0
    3.2074   -4.8138    0.0000 H   0  0  0  0  0  0  0  0  0  0  0  0
    5.7708   -3.6725    0.0000 H   0  0  0  0  0  0  0  0  0  0  0  0
    5.4220    4.0018    0.0000 H   0  0  0  0  0  0  0  0  0  0  0  0
    5.9589    5.3118    0.0000 H   0  0  0  0  0  0  0  0  0  0  0  0
    6.4264    2.7169    0.0000 H   0  0  0  0  0  0  0  0  0  0  0  0
    7.2234    2.7169    0.0000 H   0  0  0  0  0  0  0  0  0  0  0  0
    7.3810    1.1549    0.0000 H   0  0  0  0  0  0  0  0  0  0  0  0
    8.2279    1.3818    0.0000 H   0  0  0  0  0  0  0  0  0  0  0  0
    8.0010    2.2287    0.0000 H   0  0  0  0  0  0  0  0  0  0  0  0
    2.1848    2.2287    0.0000 H   0  0  0  0  0  0  0  0  0  0  0  0
    1.9579    1.3818    0.0000 H   0  0  0  0  0  0  0  0  0  0  0  0
    2.8048    1.1549    0.0000 H   0  0  0  0  0  0  0  0  0  0  0  0
    5.2676   -7.3118    0.0000 H   0  0  0  0  0  0  0  0  0  0  0  0
    5.0929    5.8118    0.0000 H   0  0  0  0  0  0  0  0  0  0  0  0
    7.6910    4.0718    0.0000 H   0  0  0  0  0  0  0  0  0  0  0  0
    6.2880    6.5018    0.0000 H   0  0  0  0  0  0  0  0  0  0  0  0
    8.2279    3.3818    0.0000 H   0  0  0  0  0  0  0  0  0  0  0  0
    6.6479   -6.3579    0.0000 H   0  0  0  0  0  0  0  0  0  0  0  0
    7.4665   -6.6721    0.0000 H   0  0  0  0  0  0  0  0  0  0  0  0
    7.7807   -5.8536    0.0000 H   0  0  0  0  0  0  0  0  0  0  0  0
    2.7133   -5.8800    0.0000 H   0  0  0  0  0  0  0  0  0  0  0  0
    2.0319   -6.4318    0.0000 H   0  0  0  0  0  0  0  0  0  0  0  0
    2.5837   -7.1132    0.0000 H   0  0  0  0  0  0  0  0  0  0  0  0
    7.6910    7.3118    0.0000 H   0  0  0  0  0  0  0  0  0  0  0  0
    9.4230    7.3118    0.0000 H   0  0  0  0  0  0  0  0  0  0  0  0
   10.5990    4.6549    0.0000 H   0  0  0  0  0  0  0  0  0  0  0  0
   10.8260    5.5018    0.0000 H   0  0  0  0  0  0  0  0  0  0  0  0
    9.9790    5.7288    0.0000 H   0  0  0  0  0  0  0  0  0  0  0  0
  1 16  1  0  0  0  0
  1 17  1  0  0  0  0
  2 18  1  0  0  0  0
  2 55  1  0  0  0  0
  3 20  2  0  0  0  0
  4 26  1  0  0  0  0
 29  4  1  1  0  0  0
  5 24  1  0  0  0  0
  5 36  1  0  0  0  0
  6 25  1  0  0  0  0
  6 37  1  0  0  0  0
  7 30  1  0  0  0  0
  7 40  1  0  0  0  0
  8 31  1  0  0  0  0
  8 41  1  0  0  0  0
  9 32  1  0  0  0  0
  9 68  1  0  0  0  0
 33 10  1  1  0  0  0
 10 69  1  0  0  0  0
 11 34  1  0  0  0  0
 11 72  1  0  0  0  0
 12 42  1  0  0  0  0
 12 45  1  0  0  0  0
 13 44  1  0  0  0  0
 13 80  1  0  0  0  0
 14 15  1  0  0  0  0
 14 16  1  0  0  0  0
 14 18  1  1  0  0  0
 14 46  1  0  0  0  0
 15 17  1  0  0  0  0
 15 20  1  6  0  0  0
 15 47  1  0  0  0  0
 16 19  1  6  0  0  0
 16 48  1  0  0  0  0
 17 49  1  0  0  0  0
 17 50  1  0  0  0  0
 18 51  1  0  0  0  0
 18 52  1  0  0  0  0
 19 21  2  0  0  0  0
 19 22  1  0  0  0  0
 20 23  1  0  0  0  0
 21 25  1  0  0  0  0
 21 53  1  0  0  0  0
 22 24  2  0  0  0  0
 22 54  1  0  0  0  0
 23 27  2  0  0  0  0
 23 28  1  0  0  0  0
 24 26  1  0  0  0  0
 25 26  2  0  0  0  0
 27 31  1  0  0  0  0
 27 56  1  0  0  0  0
 28 30  2  0  0  0  0
 28 57  1  0  0  0  0
 29 33  1  0  0  0  0
 29 34  1  0  0  0  0
 29 58  1  0  0  0  0
 30 32  1  0  0  0  0
 31 32  2  0  0  0  0
 33 35  1  0  0  0  0
 33 59  1  0  0  0  0
 34 60  1  0  0  0  0
 34 61  1  0  0  0  0
 35 38  2  0  0  0  0
 35 39  1  0  0  0  0
 36 62  1  0  0  0  0
 36 63  1  0  0  0  0
 36 64  1  0  0  0  0
 37 65  1  0  0  0  0
 37 66  1  0  0  0  0
 37 67  1  0  0  0  0
 38 42  1  0  0  0  0
 38 70  1  0  0  0  0
 39 43  2  0  0  0  0
 39 71  1  0  0  0  0
 40 73  1  0  0  0  0
 40 74  1  0  0  0  0
 40 75  1  0  0  0  0
 41 76  1  0  0  0  0
 41 77  1  0  0  0  0
 41 78  1  0  0  0  0
 42 44  2  0  0  0  0
 43 44  1  0  0  0  0
 43 79  1  0  0  0  0
 45 81  1  0  0  0  0
 45 82  1  0  0  0  0
 45 83  1  0  0  0  0
M  END
> <PUBCHEM_COMPOUND_CID>
102052099

> <PUBCHEM_COMPOUND_CANONICALIZED>
1

> <PUBCHEM_CACTVS_COMPLEXITY>
880

> <PUBCHEM_CACTVS_HBOND_ACCEPTOR>
13

> <PUBCHEM_CACTVS_HBOND_DONOR>
5

> <PUBCHEM_CACTVS_ROTATABLE_BOND>
14

> <PUBCHEM_CACTVS_SUBSKEYS>
AAADcfB8PAAAAAAAAAAAAAAAAAAAASAAAAAwYMAAAAAAAAABUAAAGgAACAAADRSgmAIyBoAABgCIAqBSAAACCAAkIAAIiAEGiMgNNzaGNRqCeSOl4BULuYfK7PzOoAABCAAAQABAAAIQAACAAAAAAAAAAA==

> <PUBCHEM_IUPAC_OPENEYE_NAME>
(4-hydroxy-3,5-dimethoxy-phenyl)-[(3R,4S,5R)-5-[4-[(1R,2S)-2-hydroxy-2-(4-hydroxy-3-methoxy-phenyl)-1-(hydroxymethyl)ethoxy]-3,5-dimethoxy-phenyl]-4-(hydroxymethyl)tetrahydrofuran-3-yl]methanone

> <PUBCHEM_IUPAC_CAS_NAME>
[(3R,4S,5R)-5-[4-[(1S,2R)-1,3-dihydroxy-1-(4-hydroxy-3-methoxyphenyl)propan-2-yl]oxy-3,5-dimethoxyphenyl]-4-(hydroxymethyl)-3-oxolanyl]-(4-hydroxy-3,5-dimethoxyphenyl)methanone

> <PUBCHEM_IUPAC_NAME_MARKUP>
[(3<I>R</I>,4<I>S</I>,5<I>R</I>)-5-[4-[(1<I>S</I>,2<I>R</I>)-1,3-dihydroxy-1-(4-hydroxy-3-methoxyphenyl)propan-2-yl]oxy-3,5-dimethoxyphenyl]-4-(hydroxymethyl)oxolan-3-yl]-(4-hydroxy-3,5-dimethoxyphenyl)methanone

> <PUBCHEM_IUPAC_NAME>
[(3R,4S,5R)-5-[4-[(1S,2R)-1,3-dihydroxy-1-(4-hydroxy-3-methoxyphenyl)propan-2-yl]oxy-3,5-dimethoxyphenyl]-4-(hydroxymethyl)oxolan-3-yl]-(4-hydroxy-3,5-dimethoxyphenyl)methanone

> <PUBCHEM_IUPAC_SYSTEMATIC_NAME>
[(3R,4S,5R)-5-[3,5-dimethoxy-4-[(1S,2R)-1-(3-methoxy-4-oxidanyl-phenyl)-1,3-bis(oxidanyl)propan-2-yl]oxy-phenyl]-4-(hydroxymethyl)oxolan-3-yl]-(3,5-dimethoxy-4-oxidanyl-phenyl)methanone

> <PUBCHEM_IUPAC_TRADITIONAL_NAME>
(4-hydroxy-3,5-dimethoxy-phenyl)-[(3R,4S,5R)-5-[4-[(1R,2S)-2-hydroxy-2-(4-hydroxy-3-methoxy-phenyl)-1-methylol-ethoxy]-3,5-dimethoxy-phenyl]-4-methylol-tetrahydrofuran-3-yl]methanone

> <PUBCHEM_IUPAC_INCHI>
InChI=1S/C32H38O13/c1-39-22-8-16(6-7-21(22)35)29(37)27(14-34)45-32-25(42-4)11-18(12-26(32)43-5)31-19(13-33)20(15-44-31)28(36)17-9-23(40-2)30(38)24(10-17)41-3/h6-12,19-20,27,29,31,33-35,37-38H,13-15H2,1-5H3/t19-,20+,27-,29+,31+/m1/s1

> <PUBCHEM_IUPAC_INCHIKEY>
ZYYQHSFCDFPVRW-KKJMMTQRSA-N

> <PUBCHEM_XLOGP3_AA>
1.6

> <PUBCHEM_EXACT_MASS>
630.23124126

> <PUBCHEM_MOLECULAR_FORMULA>
C32H38O13

> <PUBCHEM_MOLECULAR_WEIGHT>
630.6

> <PUBCHEM_OPENEYE_CAN_SMILES>
COC1=CC(=CC(=C1OC(CO)C(C2=CC(=C(C=C2)O)OC)O)OC)C3C(C(CO3)C(=O)C4=CC(=C(C(=C4)OC)O)OC)CO

> <PUBCHEM_OPENEYE_ISO_SMILES>
COC1=CC(=CC(=C1O[C@H](CO)[C@H](C2=CC(=C(C=C2)O)OC)O)OC)[C@H]3[C@@H]([C@H](CO3)C(=O)C4=CC(=C(C(=C4)OC)O)OC)CO

> <PUBCHEM_CACTVS_TPSA>
183

> <PUBCHEM_MONOISOTOPIC_WEIGHT>
630.23124126

> <PUBCHEM_TOTAL_CHARGE>
0

> <PUBCHEM_HEAVY_ATOM_COUNT>
45

> <PUBCHEM_ATOM_DEF_STEREO_COUNT>
5

> <PUBCHEM_ATOM_UDEF_STEREO_COUNT>
0

> <PUBCHEM_BOND_DEF_STEREO_COUNT>
0

> <PUBCHEM_BOND_UDEF_STEREO_COUNT>
0

> <PUBCHEM_ISOTOPIC_ATOM_COUNT>
0

> <PUBCHEM_COMPONENT_COUNT>
1

> <PUBCHEM_CACTVS_TAUTO_COUNT>
-1

> <PUBCHEM_COORDINATE_TYPE>
1
5
255

> <PUBCHEM_BONDANNOTATIONS>
33  10  5
14  18  5
15  20  6
16  19  6
19  21  8
19  22  8
21  25  8
22  24  8
23  27  8
23  28  8
24  26  8
25  26  8
27  31  8
28  30  8
30  32  8
31  32  8
35  38  8
35  39  8
38  42  8
39  43  8
29  4  5
42  44  8
43  44  8

$$$$
