 
  -OEChem-10192104342D

 44 43  0     0  0  0  0  0  0999 V2000
    7.7331   -0.2500    0.0000 O   0  0  0  0  0  0  0  0  0  0  0  0
    8.5991    1.2500    0.0000 O   0  0  0  0  0  0  0  0  0  0  0  0
    5.1350    0.2500    0.0000 O   0  0  0  0  0  0  0  0  0  0  0  0
    6.0010   -1.2500    0.0000 O   0  0  0  0  0  0  0  0  0  0  0  0
    2.5369   -0.2500    0.0000 O   0  0  0  0  0  0  0  0  0  0  0  0
    3.4030    1.2500    0.0000 O   0  0  0  0  0  0  0  0  0  0  0  0
   12.9292   -0.2500    0.0000 C   0  0  0  0  0  0  0  0  0  0  0  0
   12.0632    0.2500    0.0000 C   0  0  0  0  0  0  0  0  0  0  0  0
   13.7953    0.2500    0.0000 C   0  0  0  0  0  0  0  0  0  0  0  0
   11.1972   -0.2500    0.0000 C   0  0  0  0  0  0  0  0  0  0  0  0
   14.6613   -0.2500    0.0000 C   0  0  0  0  0  0  0  0  0  0  0  0
   10.3312    0.2500    0.0000 C   0  0  0  0  0  0  0  0  0  0  0  0
   15.5273    0.2500    0.0000 C   0  0  0  0  0  0  0  0  0  0  0  0
    9.4651   -0.2500    0.0000 C   0  0  0  0  0  0  0  0  0  0  0  0
   16.3933   -0.2500    0.0000 C   0  0  0  0  0  0  0  0  0  0  0  0
    8.5991    0.2500    0.0000 C   0  0  0  0  0  0  0  0  0  0  0  0
    6.8671    0.2500    0.0000 C   0  0  0  0  0  0  0  0  0  0  0  0
    6.0010   -0.2500    0.0000 C   0  0  0  0  0  0  0  0  0  0  0  0
    4.2690   -0.2500    0.0000 C   0  0  0  0  0  0  0  0  0  0  0  0
    3.4030    0.2500    0.0000 C   0  0  0  0  0  0  0  0  0  0  0  0
   12.5307   -0.7249    0.0000 H   0  0  0  0  0  0  0  0  0  0  0  0
   13.3278   -0.7249    0.0000 H   0  0  0  0  0  0  0  0  0  0  0  0
   12.4617    0.7249    0.0000 H   0  0  0  0  0  0  0  0  0  0  0  0
   11.6647    0.7249    0.0000 H   0  0  0  0  0  0  0  0  0  0  0  0
   14.1938    0.7249    0.0000 H   0  0  0  0  0  0  0  0  0  0  0  0
   13.3967    0.7249    0.0000 H   0  0  0  0  0  0  0  0  0  0  0  0
   10.7987   -0.7249    0.0000 H   0  0  0  0  0  0  0  0  0  0  0  0
   11.5957   -0.7249    0.0000 H   0  0  0  0  0  0  0  0  0  0  0  0
   14.2628   -0.7249    0.0000 H   0  0  0  0  0  0  0  0  0  0  0  0
   15.0598   -0.7249    0.0000 H   0  0  0  0  0  0  0  0  0  0  0  0
   10.7297    0.7249    0.0000 H   0  0  0  0  0  0  0  0  0  0  0  0
    9.9326    0.7249    0.0000 H   0  0  0  0  0  0  0  0  0  0  0  0
   15.9258    0.7249    0.0000 H   0  0  0  0  0  0  0  0  0  0  0  0
   15.1288    0.7249    0.0000 H   0  0  0  0  0  0  0  0  0  0  0  0
    9.0666   -0.7249    0.0000 H   0  0  0  0  0  0  0  0  0  0  0  0
    9.8637   -0.7249    0.0000 H   0  0  0  0  0  0  0  0  0  0  0  0
   16.0833   -0.7869    0.0000 H   0  0  0  0  0  0  0  0  0  0  0  0
   16.9303   -0.5600    0.0000 H   0  0  0  0  0  0  0  0  0  0  0  0
   16.7033    0.2869    0.0000 H   0  0  0  0  0  0  0  0  0  0  0  0
    7.2656    0.7249    0.0000 H   0  0  0  0  0  0  0  0  0  0  0  0
    6.4685    0.7249    0.0000 H   0  0  0  0  0  0  0  0  0  0  0  0
    3.8705   -0.7249    0.0000 H   0  0  0  0  0  0  0  0  0  0  0  0
    4.6675   -0.7249    0.0000 H   0  0  0  0  0  0  0  0  0  0  0  0
    2.0000    0.0600    0.0000 H   0  0  0  0  0  0  0  0  0  0  0  0
  1 16  1  0  0  0  0
  1 17  1  0  0  0  0
  2 16  2  0  0  0  0
  3 18  1  0  0  0  0
  3 19  1  0  0  0  0
  4 18  2  0  0  0  0
  5 20  1  0  0  0  0
  5 44  1  0  0  0  0
  6 20  2  0  0  0  0
  7  8  1  0  0  0  0
  7  9  1  0  0  0  0
  7 21  1  0  0  0  0
  7 22  1  0  0  0  0
  8 10  1  0  0  0  0
  8 23  1  0  0  0  0
  8 24  1  0  0  0  0
  9 11  1  0  0  0  0
  9 25  1  0  0  0  0
  9 26  1  0  0  0  0
 10 12  1  0  0  0  0
 10 27  1  0  0  0  0
 10 28  1  0  0  0  0
 11 13  1  0  0  0  0
 11 29  1  0  0  0  0
 11 30  1  0  0  0  0
 12 14  1  0  0  0  0
 12 31  1  0  0  0  0
 12 32  1  0  0  0  0
 13 15  1  0  0  0  0
 13 33  1  0  0  0  0
 13 34  1  0  0  0  0
 14 16  1  0  0  0  0
 14 35  1  0  0  0  0
 14 36  1  0  0  0  0
 15 37  1  0  0  0  0
 15 38  1  0  0  0  0
 15 39  1  0  0  0  0
 17 18  1  0  0  0  0
 17 40  1  0  0  0  0
 17 41  1  0  0  0  0
 19 20  1  0  0  0  0
 19 42  1  0  0  0  0
 19 43  1  0  0  0  0
M  END
> <PUBCHEM_COMPOUND_CID>
54108540

> <PUBCHEM_COMPOUND_CANONICALIZED>
1

> <PUBCHEM_CACTVS_COMPLEXITY>
300

> <PUBCHEM_CACTVS_HBOND_ACCEPTOR>
6

> <PUBCHEM_CACTVS_HBOND_DONOR>
1

> <PUBCHEM_CACTVS_ROTATABLE_BOND>
14

> <PUBCHEM_CACTVS_SUBSKEYS>
AAADceBwOAAAAAAAAAAAAAAAAAAAAAAAAAAAAAAAAAAAAAAAAAAAGgAACAAACACggAICCAAABgAIAACQCAIAAAAAAAAAAAFAAAABABIAAAQCAAAEAAADAAGIyKCAAAAAAAAAAAAAAAAAAAAAAAAAAAAAAA==

> <PUBCHEM_IUPAC_OPENEYE_NAME>
2-(2-decanoyloxyacetyl)oxyacetic acid

> <PUBCHEM_IUPAC_CAS_NAME>
2-[1-oxo-2-(1-oxodecoxy)ethoxy]acetic acid

> <PUBCHEM_IUPAC_NAME_MARKUP>
2-(2-decanoyloxyacetyl)oxyacetic acid

> <PUBCHEM_IUPAC_NAME>
2-(2-decanoyloxyacetyl)oxyacetic acid

> <PUBCHEM_IUPAC_SYSTEMATIC_NAME>
2-(2-decanoyloxyethanoyloxy)ethanoic acid

> <PUBCHEM_IUPAC_TRADITIONAL_NAME>
2-(2-capryloxyacetyl)oxyacetic acid

> <PUBCHEM_IUPAC_INCHI>
InChI=1S/C14H24O6/c1-2-3-4-5-6-7-8-9-13(17)20-11-14(18)19-10-12(15)16/h2-11H2,1H3,(H,15,16)

> <PUBCHEM_IUPAC_INCHIKEY>
NFLFYNFZYGKWLG-UHFFFAOYSA-N

> <PUBCHEM_XLOGP3_AA>
3.7

> <PUBCHEM_EXACT_MASS>
288.15728848

> <PUBCHEM_MOLECULAR_FORMULA>
C14H24O6

> <PUBCHEM_MOLECULAR_WEIGHT>
288.34

> <PUBCHEM_OPENEYE_CAN_SMILES>
CCCCCCCCCC(=O)OCC(=O)OCC(=O)O

> <PUBCHEM_OPENEYE_ISO_SMILES>
CCCCCCCCCC(=O)OCC(=O)OCC(=O)O

> <PUBCHEM_CACTVS_TPSA>
89.9

> <PUBCHEM_MONOISOTOPIC_WEIGHT>
288.15728848

> <PUBCHEM_TOTAL_CHARGE>
0

> <PUBCHEM_HEAVY_ATOM_COUNT>
20

> <PUBCHEM_ATOM_DEF_STEREO_COUNT>
0

> <PUBCHEM_ATOM_UDEF_STEREO_COUNT>
0

> <PUBCHEM_BOND_DEF_STEREO_COUNT>
0

> <PUBCHEM_BOND_UDEF_STEREO_COUNT>
0

> <PUBCHEM_ISOTOPIC_ATOM_COUNT>
0

> <PUBCHEM_COMPONENT_COUNT>
1

> <PUBCHEM_CACTVS_TAUTO_COUNT>
-1

> <PUBCHEM_COORDINATE_TYPE>
1
5
255

$$$$
