 
  -OEChem-10192104032D

 51 52  0     0  0  0  0  0  0999 V2000
    4.5981    3.1550    0.0000 O   0  0  0  0  0  0  0  0  0  0  0  0
    6.3301   -1.8450    0.0000 O   0  0  0  0  0  0  0  0  0  0  0  0
    2.8660   -5.8450    0.0000 O   0  0  0  0  0  0  0  0  0  0  0  0
    2.0000   -4.3450    0.0000 O   0  0  0  0  0  0  0  0  0  0  0  0
    5.4641   -0.3450    0.0000 N   0  0  0  0  0  0  0  0  0  0  0  0
    6.3301    3.1550    0.0000 N   0  0  0  0  0  0  0  0  0  0  0  0
    5.4641    1.6550    0.0000 C   0  0  0  0  0  0  0  0  0  0  0  0
    6.3301    1.1550    0.0000 C   0  0  0  0  0  0  0  0  0  0  0  0
    4.5981    1.1550    0.0000 C   0  0  0  0  0  0  0  0  0  0  0  0
    6.3301    0.1550    0.0000 C   0  0  0  0  0  0  0  0  0  0  0  0
    4.5981    0.1550    0.0000 C   0  0  0  0  0  0  0  0  0  0  0  0
    5.4641    2.6550    0.0000 C   0  0  0  0  0  0  0  0  0  0  0  0
    5.4641   -1.3450    0.0000 C   0  0  0  0  0  0  0  0  0  0  0  0
    4.5981   -1.8450    0.0000 C   0  0  0  0  0  0  0  0  0  0  0  0
    4.5981   -2.8450    0.0000 C   0  0  0  0  0  0  0  0  0  0  0  0
    3.7320   -3.3450    0.0000 C   0  0  0  0  0  0  0  0  0  0  0  0
    6.3301    4.1550    0.0000 C   0  0  0  0  0  0  0  0  0  0  0  0
    3.7320   -4.3450    0.0000 C   0  0  0  0  0  0  0  0  0  0  0  0
    7.1962    4.6550    0.0000 C   0  0  0  0  0  0  0  0  0  0  0  0
    2.8660   -4.8450    0.0000 C   0  0  0  0  0  0  0  0  0  0  0  0
    8.0622    4.1550    0.0000 C   0  0  0  0  0  0  0  0  0  0  0  0
    7.1962    5.6550    0.0000 C   0  0  0  0  0  0  0  0  0  0  0  0
    8.9282    4.6550    0.0000 C   0  0  0  0  0  0  0  0  0  0  0  0
    8.0622    6.1550    0.0000 C   0  0  0  0  0  0  0  0  0  0  0  0
    8.9282    5.6550    0.0000 C   0  0  0  0  0  0  0  0  0  0  0  0
    6.0010    1.9650    0.0000 H   0  0  0  0  0  0  0  0  0  0  0  0
    6.9407    1.0473    0.0000 H   0  0  0  0  0  0  0  0  0  0  0  0
    6.5422    1.7376    0.0000 H   0  0  0  0  0  0  0  0  0  0  0  0
    4.3860    1.7376    0.0000 H   0  0  0  0  0  0  0  0  0  0  0  0
    3.9875    1.0473    0.0000 H   0  0  0  0  0  0  0  0  0  0  0  0
    6.5422   -0.4276    0.0000 H   0  0  0  0  0  0  0  0  0  0  0  0
    6.9407    0.2627    0.0000 H   0  0  0  0  0  0  0  0  0  0  0  0
    3.9875    0.2627    0.0000 H   0  0  0  0  0  0  0  0  0  0  0  0
    4.3860   -0.4276    0.0000 H   0  0  0  0  0  0  0  0  0  0  0  0
    4.3860   -1.2624    0.0000 H   0  0  0  0  0  0  0  0  0  0  0  0
    3.9875   -1.9527    0.0000 H   0  0  0  0  0  0  0  0  0  0  0  0
    4.8101   -3.4276    0.0000 H   0  0  0  0  0  0  0  0  0  0  0  0
    5.2087   -2.7373    0.0000 H   0  0  0  0  0  0  0  0  0  0  0  0
    6.8671    2.8450    0.0000 H   0  0  0  0  0  0  0  0  0  0  0  0
    3.5200   -2.7624    0.0000 H   0  0  0  0  0  0  0  0  0  0  0  0
    3.1215   -3.4527    0.0000 H   0  0  0  0  0  0  0  0  0  0  0  0
    6.1181    4.7376    0.0000 H   0  0  0  0  0  0  0  0  0  0  0  0
    5.7196    4.0473    0.0000 H   0  0  0  0  0  0  0  0  0  0  0  0
    3.9441   -4.9276    0.0000 H   0  0  0  0  0  0  0  0  0  0  0  0
    4.3426   -4.2373    0.0000 H   0  0  0  0  0  0  0  0  0  0  0  0
    8.0622    3.5350    0.0000 H   0  0  0  0  0  0  0  0  0  0  0  0
    6.6592    5.9650    0.0000 H   0  0  0  0  0  0  0  0  0  0  0  0
    9.4651    4.3450    0.0000 H   0  0  0  0  0  0  0  0  0  0  0  0
    8.0622    6.7750    0.0000 H   0  0  0  0  0  0  0  0  0  0  0  0
    9.4651    5.9650    0.0000 H   0  0  0  0  0  0  0  0  0  0  0  0
    2.3291   -6.1550    0.0000 H   0  0  0  0  0  0  0  0  0  0  0  0
  1 12  2  0  0  0  0
  2 13  2  0  0  0  0
  3 20  1  0  0  0  0
  3 51  1  0  0  0  0
  4 20  2  0  0  0  0
  5 10  1  0  0  0  0
  5 11  1  0  0  0  0
  5 13  1  0  0  0  0
  6 12  1  0  0  0  0
  6 17  1  0  0  0  0
  6 39  1  0  0  0  0
  7  8  1  0  0  0  0
  7  9  1  0  0  0  0
  7 12  1  0  0  0  0
  7 26  1  0  0  0  0
  8 10  1  0  0  0  0
  8 27  1  0  0  0  0
  8 28  1  0  0  0  0
  9 11  1  0  0  0  0
  9 29  1  0  0  0  0
  9 30  1  0  0  0  0
 10 31  1  0  0  0  0
 10 32  1  0  0  0  0
 11 33  1  0  0  0  0
 11 34  1  0  0  0  0
 13 14  1  0  0  0  0
 14 15  1  0  0  0  0
 14 35  1  0  0  0  0
 14 36  1  0  0  0  0
 15 16  1  0  0  0  0
 15 37  1  0  0  0  0
 15 38  1  0  0  0  0
 16 18  1  0  0  0  0
 16 40  1  0  0  0  0
 16 41  1  0  0  0  0
 17 19  1  0  0  0  0
 17 42  1  0  0  0  0
 17 43  1  0  0  0  0
 18 20  1  0  0  0  0
 18 44  1  0  0  0  0
 18 45  1  0  0  0  0
 19 21  2  0  0  0  0
 19 22  1  0  0  0  0
 21 23  1  0  0  0  0
 21 46  1  0  0  0  0
 22 24  2  0  0  0  0
 22 47  1  0  0  0  0
 23 25  2  0  0  0  0
 23 48  1  0  0  0  0
 24 25  1  0  0  0  0
 24 49  1  0  0  0  0
 25 50  1  0  0  0  0
M  END
> <PUBCHEM_COMPOUND_CID>
121768631

> <PUBCHEM_COMPOUND_CANONICALIZED>
1

> <PUBCHEM_CACTVS_COMPLEXITY>
452

> <PUBCHEM_CACTVS_HBOND_ACCEPTOR>
4

> <PUBCHEM_CACTVS_HBOND_DONOR>
2

> <PUBCHEM_CACTVS_ROTATABLE_BOND>
8

> <PUBCHEM_CACTVS_SUBSKEYS>
AAADceB7OAAAAAAAAAAAAAAAAAAAAAAAAAA8QAAAAAAAAAABAAAAHgAQCAAADQDBmAQwCIPAAgCIAiHSGACCAAAgAAAIiIEIBIgIIDKAkRGEYAhklgCIiAecyAAOAAAAAAAAAAAAAAAAAAAAAAAAAAAAAA==

> <PUBCHEM_IUPAC_OPENEYE_NAME>
6-[4-(benzylcarbamoyl)-1-piperidyl]-6-oxo-hexanoic acid

> <PUBCHEM_IUPAC_CAS_NAME>
6-oxo-6-[4-[oxo-[(phenylmethyl)amino]methyl]-1-piperidinyl]hexanoic acid

> <PUBCHEM_IUPAC_NAME_MARKUP>
6-[4-(benzylcarbamoyl)piperidin-1-yl]-6-oxohexanoic acid

> <PUBCHEM_IUPAC_NAME>
6-[4-(benzylcarbamoyl)piperidin-1-yl]-6-oxohexanoic acid

> <PUBCHEM_IUPAC_SYSTEMATIC_NAME>
6-oxidanylidene-6-[4-[(phenylmethyl)carbamoyl]piperidin-1-yl]hexanoic acid

> <PUBCHEM_IUPAC_TRADITIONAL_NAME>
6-[4-(benzylcarbamoyl)piperidino]-6-keto-hexanoic acid

> <PUBCHEM_IUPAC_INCHI>
InChI=1S/C19H26N2O4/c22-17(8-4-5-9-18(23)24)21-12-10-16(11-13-21)19(25)20-14-15-6-2-1-3-7-15/h1-3,6-7,16H,4-5,8-14H2,(H,20,25)(H,23,24)

> <PUBCHEM_IUPAC_INCHIKEY>
ANYXRQUJCLRAHL-UHFFFAOYSA-N

> <PUBCHEM_XLOGP3_AA>
1.1

> <PUBCHEM_EXACT_MASS>
346.18925731

> <PUBCHEM_MOLECULAR_FORMULA>
C19H26N2O4

> <PUBCHEM_MOLECULAR_WEIGHT>
346.4

> <PUBCHEM_OPENEYE_CAN_SMILES>
C1CN(CCC1C(=O)NCC2=CC=CC=C2)C(=O)CCCCC(=O)O

> <PUBCHEM_OPENEYE_ISO_SMILES>
C1CN(CCC1C(=O)NCC2=CC=CC=C2)C(=O)CCCCC(=O)O

> <PUBCHEM_CACTVS_TPSA>
86.7

> <PUBCHEM_MONOISOTOPIC_WEIGHT>
346.18925731

> <PUBCHEM_TOTAL_CHARGE>
0

> <PUBCHEM_HEAVY_ATOM_COUNT>
25

> <PUBCHEM_ATOM_DEF_STEREO_COUNT>
0

> <PUBCHEM_ATOM_UDEF_STEREO_COUNT>
0

> <PUBCHEM_BOND_DEF_STEREO_COUNT>
0

> <PUBCHEM_BOND_UDEF_STEREO_COUNT>
0

> <PUBCHEM_ISOTOPIC_ATOM_COUNT>
0

> <PUBCHEM_COMPONENT_COUNT>
1

> <PUBCHEM_CACTVS_TAUTO_COUNT>
-1

> <PUBCHEM_COORDINATE_TYPE>
1
5
255

> <PUBCHEM_BONDANNOTATIONS>
19  21  8
19  22  8
21  23  8
22  24  8
23  25  8
24  25  8

$$$$
