 
  -OEChem-10192104182D

 51 52  0     1  0  0  0  0  0999 V2000
    6.0010   -0.1550    0.0000 S   0  0  0  0  0  0  0  0  0  0  0  0
    4.2690    1.8450    0.0000 O   0  0  0  0  0  0  0  0  0  0  0  0
    7.7331   -1.1550    0.0000 O   0  0  0  0  0  0  0  0  0  0  0  0
    4.2690   -1.1550    0.0000 O   0  0  0  0  0  0  0  0  0  0  0  0
    6.0010    1.8450    0.0000 O   0  0  0  0  0  0  0  0  0  0  0  0
    8.5991    1.3450    0.0000 O   0  0  0  0  0  0  0  0  0  0  0  0
    2.5369   -0.1550    0.0000 O   0  0  0  0  0  0  0  0  0  0  0  0
   10.3312    0.3450    0.0000 O   0  0  0  0  0  0  0  0  0  0  0  0
    8.5991   -2.6550    0.0000 O   0  0  0  0  0  0  0  0  0  0  0  0
   10.3312   -1.6550    0.0000 O   0  0  0  0  0  0  0  0  0  0  0  0
    2.5369    2.8450    0.0000 O   0  0  0  0  0  0  0  0  0  0  0  0
    5.1350    0.3450    0.0000 C   0  0  1  0  0  0  0  0  0  0  0  0
    4.2690   -0.1550    0.0000 C   0  0  2  0  0  0  0  0  0  0  0  0
    7.7331   -0.1550    0.0000 C   0  0  1  0  0  0  0  0  0  0  0  0
    8.5991    0.3450    0.0000 C   0  0  2  0  0  0  0  0  0  0  0  0
    3.4030    0.3450    0.0000 C   0  0  1  0  0  0  0  0  0  0  0  0
    9.4651   -0.1550    0.0000 C   0  0  1  0  0  0  0  0  0  0  0  0
    3.4030    1.3450    0.0000 C   0  0  1  0  0  0  0  0  0  0  0  0
    5.1350    1.3450    0.0000 C   0  0  1  0  0  0  0  0  0  0  0  0
    9.4651   -1.1550    0.0000 C   0  0  1  0  0  0  0  0  0  0  0  0
    6.8671    0.3450    0.0000 C   0  0  0  0  0  0  0  0  0  0  0  0
    8.5991   -1.6550    0.0000 C   0  0  2  0  0  0  0  0  0  0  0  0
    2.5369    1.8450    0.0000 C   0  0  0  0  0  0  0  0  0  0  0  0
    6.0010    2.8450    0.0000 C   0  0  0  0  0  0  0  0  0  0  0  0
    7.7331   -3.1550    0.0000 C   0  0  0  0  0  0  0  0  0  0  0  0
    5.1350   -0.2750    0.0000 H   0  0  0  0  0  0  0  0  0  0  0  0
    3.7320   -0.4650    0.0000 H   0  0  0  0  0  0  0  0  0  0  0  0
    7.1962   -0.4650    0.0000 H   0  0  0  0  0  0  0  0  0  0  0  0
    8.0622    0.6550    0.0000 H   0  0  0  0  0  0  0  0  0  0  0  0
    3.4030   -0.2750    0.0000 H   0  0  0  0  0  0  0  0  0  0  0  0
    9.4651    0.4650    0.0000 H   0  0  0  0  0  0  0  0  0  0  0  0
    3.4030    1.9650    0.0000 H   0  0  0  0  0  0  0  0  0  0  0  0
    5.1350    1.9650    0.0000 H   0  0  0  0  0  0  0  0  0  0  0  0
   10.0021   -0.8450    0.0000 H   0  0  0  0  0  0  0  0  0  0  0  0
    7.2656    0.8199    0.0000 H   0  0  0  0  0  0  0  0  0  0  0  0
    6.4685    0.8199    0.0000 H   0  0  0  0  0  0  0  0  0  0  0  0
    8.0622   -1.9650    0.0000 H   0  0  0  0  0  0  0  0  0  0  0  0
    1.9264    1.9527    0.0000 H   0  0  0  0  0  0  0  0  0  0  0  0
    2.3249    1.2624    0.0000 H   0  0  0  0  0  0  0  0  0  0  0  0
    3.7320   -1.4650    0.0000 H   0  0  0  0  0  0  0  0  0  0  0  0
    9.1360    1.6550    0.0000 H   0  0  0  0  0  0  0  0  0  0  0  0
    2.0000    0.1550    0.0000 H   0  0  0  0  0  0  0  0  0  0  0  0
   10.8681    0.0350    0.0000 H   0  0  0  0  0  0  0  0  0  0  0  0
   10.3312   -2.2750    0.0000 H   0  0  0  0  0  0  0  0  0  0  0  0
    6.6210    2.8450    0.0000 H   0  0  0  0  0  0  0  0  0  0  0  0
    6.0010    3.4650    0.0000 H   0  0  0  0  0  0  0  0  0  0  0  0
    5.3810    2.8450    0.0000 H   0  0  0  0  0  0  0  0  0  0  0  0
    2.0000    3.1550    0.0000 H   0  0  0  0  0  0  0  0  0  0  0  0
    7.4231   -2.6181    0.0000 H   0  0  0  0  0  0  0  0  0  0  0  0
    7.1962   -3.4650    0.0000 H   0  0  0  0  0  0  0  0  0  0  0  0
    8.0431   -3.6919    0.0000 H   0  0  0  0  0  0  0  0  0  0  0  0
 12  1  1  1  0  0  0
  1 21  1  0  0  0  0
  2 18  1  0  0  0  0
  2 19  1  0  0  0  0
  3 14  1  0  0  0  0
  3 22  1  0  0  0  0
 13  4  1  1  0  0  0
  4 40  1  0  0  0  0
 19  5  1  1  0  0  0
  5 24  1  0  0  0  0
 15  6  1  1  0  0  0
  6 41  1  0  0  0  0
 16  7  1  6  0  0  0
  7 42  1  0  0  0  0
 17  8  1  6  0  0  0
  8 43  1  0  0  0  0
 22  9  1  1  0  0  0
  9 25  1  0  0  0  0
 20 10  1  6  0  0  0
 10 44  1  0  0  0  0
 11 23  1  0  0  0  0
 11 48  1  0  0  0  0
 12 13  1  0  0  0  0
 12 19  1  0  0  0  0
 12 26  1  0  0  0  0
 13 16  1  0  0  0  0
 13 27  1  0  0  0  0
 14 15  1  0  0  0  0
 14 21  1  6  0  0  0
 14 28  1  0  0  0  0
 15 17  1  0  0  0  0
 15 29  1  0  0  0  0
 16 18  1  0  0  0  0
 16 30  1  0  0  0  0
 17 20  1  0  0  0  0
 17 31  1  0  0  0  0
 18 23  1  1  0  0  0
 18 32  1  0  0  0  0
 19 33  1  0  0  0  0
 20 22  1  0  0  0  0
 20 34  1  0  0  0  0
 21 35  1  0  0  0  0
 21 36  1  0  0  0  0
 22 37  1  0  0  0  0
 23 38  1  0  0  0  0
 23 39  1  0  0  0  0
 24 45  1  0  0  0  0
 24 46  1  0  0  0  0
 24 47  1  0  0  0  0
 25 49  1  0  0  0  0
 25 50  1  0  0  0  0
 25 51  1  0  0  0  0
M  END
> <PUBCHEM_COMPOUND_CID>
46201858

> <PUBCHEM_COMPOUND_CANONICALIZED>
1

> <PUBCHEM_CACTVS_COMPLEXITY>
415

> <PUBCHEM_CACTVS_HBOND_ACCEPTOR>
11

> <PUBCHEM_CACTVS_HBOND_DONOR>
6

> <PUBCHEM_CACTVS_ROTATABLE_BOND>
6

> <PUBCHEM_CACTVS_SUBSKEYS>
AAADceBwPABAAAAAAAAAAAAAAAAAAAAAAAAkSAAAAAAAAAAAAAAAGgQACAAACBS0wAOCCAAABggAAAAAAAAAAAAAABAAAAAAAAAREAIgAAAiQAAFAAAnAAHAYAwAAAAAAAAAAAAAAAAAAAAAAAAAAAAAAA==

> <PUBCHEM_IUPAC_OPENEYE_NAME>
(2S,3S,4S,5S,6S)-2-[[(2R,3S,4S,5S,6R)-4,5-dihydroxy-6-(hydroxymethyl)-2-methoxy-tetrahydropyran-3-yl]sulfanylmethyl]-6-methoxy-tetrahydropyran-3,4,5-triol

> <PUBCHEM_IUPAC_CAS_NAME>
(2S,3S,4S,5S,6S)-2-[[[(2R,3S,4S,5S,6R)-4,5-dihydroxy-6-(hydroxymethyl)-2-methoxy-3-oxanyl]thio]methyl]-6-methoxyoxane-3,4,5-triol

> <PUBCHEM_IUPAC_NAME_MARKUP>
(2<I>S</I>,3<I>S</I>,4<I>S</I>,5<I>S</I>,6<I>S</I>)-2-[[(2<I>R</I>,3<I>S</I>,4<I>S</I>,5<I>S</I>,6<I>R</I>)-4,5-dihydroxy-6-(hydroxymethyl)-2-methoxyoxan-3-yl]sulfanylmethyl]-6-methoxyoxane-3,4,5-triol

> <PUBCHEM_IUPAC_NAME>
(2S,3S,4S,5S,6S)-2-[[(2R,3S,4S,5S,6R)-4,5-dihydroxy-6-(hydroxymethyl)-2-methoxyoxan-3-yl]sulfanylmethyl]-6-methoxyoxane-3,4,5-triol

> <PUBCHEM_IUPAC_SYSTEMATIC_NAME>
(2S,3S,4S,5S,6S)-2-[[(2R,3S,4S,5S,6R)-6-(hydroxymethyl)-2-methoxy-4,5-bis(oxidanyl)oxan-3-yl]sulfanylmethyl]-6-methoxy-oxane-3,4,5-triol

> <PUBCHEM_IUPAC_TRADITIONAL_NAME>
(2S,3S,4S,5S,6S)-2-[[[(2R,3S,4S,5S,6R)-4,5-dihydroxy-2-methoxy-6-methylol-tetrahydropyran-3-yl]thio]methyl]-6-methoxy-tetrahydropyran-3,4,5-triol

> <PUBCHEM_IUPAC_INCHI>
InChI=1S/C14H26O10S/c1-21-13-11(20)9(18)8(17)6(24-13)4-25-12-10(19)7(16)5(3-15)23-14(12)22-2/h5-20H,3-4H2,1-2H3/t5-,6-,7-,8-,9+,10+,11+,12+,13+,14-/m1/s1

> <PUBCHEM_IUPAC_INCHIKEY>
PDLLAAWXNJMWMZ-KVDZQZSKSA-N

> <PUBCHEM_XLOGP3_AA>
-2.9

> <PUBCHEM_EXACT_MASS>
386.12466820

> <PUBCHEM_MOLECULAR_FORMULA>
C14H26O10S

> <PUBCHEM_MOLECULAR_WEIGHT>
386.42

> <PUBCHEM_OPENEYE_CAN_SMILES>
COC1C(C(C(C(O1)CSC2C(C(C(OC2OC)CO)O)O)O)O)O

> <PUBCHEM_OPENEYE_ISO_SMILES>
CO[C@@H]1[C@H]([C@H]([C@@H]([C@H](O1)CS[C@H]2[C@H]([C@@H]([C@H](O[C@H]2OC)CO)O)O)O)O)O

> <PUBCHEM_CACTVS_TPSA>
184

> <PUBCHEM_MONOISOTOPIC_WEIGHT>
386.12466820

> <PUBCHEM_TOTAL_CHARGE>
0

> <PUBCHEM_HEAVY_ATOM_COUNT>
25

> <PUBCHEM_ATOM_DEF_STEREO_COUNT>
10

> <PUBCHEM_ATOM_UDEF_STEREO_COUNT>
0

> <PUBCHEM_BOND_DEF_STEREO_COUNT>
0

> <PUBCHEM_BOND_UDEF_STEREO_COUNT>
0

> <PUBCHEM_ISOTOPIC_ATOM_COUNT>
0

> <PUBCHEM_COMPONENT_COUNT>
1

> <PUBCHEM_CACTVS_TAUTO_COUNT>
-1

> <PUBCHEM_COORDINATE_TYPE>
1
5
255

> <PUBCHEM_BONDANNOTATIONS>
12  1  5
20  10  6
14  21  6
18  23  5
13  4  5
19  5  5
15  6  5
16  7  6
17  8  6
22  9  5

$$$$
