 
  -OEChem-10192104042D

 60 60  0     1  0  0  0  0  0999 V2000
   10.8312   -0.7110    0.0000 O   0  0  0  0  0  0  0  0  0  0  0  0
    6.0010    0.6550    0.0000 O   0  0  0  0  0  0  0  0  0  0  0  0
    4.2690    1.6550    0.0000 O   0  0  0  0  0  0  0  0  0  0  0  0
    4.2690   -1.3450    0.0000 O   0  0  0  0  0  0  0  0  0  0  0  0
    6.0010   -1.3450    0.0000 O   0  0  0  0  0  0  0  0  0  0  0  0
    2.5369    0.6550    0.0000 O   0  0  0  0  0  0  0  0  0  0  0  0
    3.4030   -0.8450    0.0000 O   0  0  0  0  0  0  0  0  0  0  0  0
   11.3312    0.1550    0.0000 C   0  0  3  0  0  0  0  0  0  0  0  0
   10.3312    0.1550    0.0000 C   0  0  3  0  0  0  0  0  0  0  0  0
   12.1972    0.6550    0.0000 C   0  0  0  0  0  0  0  0  0  0  0  0
    9.4651    0.6550    0.0000 C   0  0  0  0  0  0  0  0  0  0  0  0
   13.0632    0.1550    0.0000 C   0  0  0  0  0  0  0  0  0  0  0  0
    8.5991    0.1550    0.0000 C   0  0  0  0  0  0  0  0  0  0  0  0
   13.9292    0.6550    0.0000 C   0  0  0  0  0  0  0  0  0  0  0  0
    7.7331    0.6550    0.0000 C   0  0  0  0  0  0  0  0  0  0  0  0
   14.7953    0.1550    0.0000 C   0  0  0  0  0  0  0  0  0  0  0  0
   15.6613    0.6550    0.0000 C   0  0  0  0  0  0  0  0  0  0  0  0
    6.8671    0.1550    0.0000 C   0  0  0  0  0  0  0  0  0  0  0  0
   16.5273    0.1550    0.0000 C   0  0  0  0  0  0  0  0  0  0  0  0
   17.3933    0.6550    0.0000 C   0  0  0  0  0  0  0  0  0  0  0  0
   18.2594    0.1550    0.0000 C   0  0  0  0  0  0  0  0  0  0  0  0
    5.1350    0.1550    0.0000 C   0  0  3  0  0  0  0  0  0  0  0  0
    4.2690    0.6550    0.0000 C   0  0  3  0  0  0  0  0  0  0  0  0
   19.1254    0.6550    0.0000 C   0  0  0  0  0  0  0  0  0  0  0  0
    5.1350   -0.8450    0.0000 C   0  0  0  0  0  0  0  0  0  0  0  0
    3.4030    0.1550    0.0000 C   0  0  0  0  0  0  0  0  0  0  0  0
   11.7696   -0.2834    0.0000 H   0  0  0  0  0  0  0  0  0  0  0  0
    9.8928   -0.2834    0.0000 H   0  0  0  0  0  0  0  0  0  0  0  0
   12.5957    1.1300    0.0000 H   0  0  0  0  0  0  0  0  0  0  0  0
   11.7987    1.1300    0.0000 H   0  0  0  0  0  0  0  0  0  0  0  0
    9.8637    1.1300    0.0000 H   0  0  0  0  0  0  0  0  0  0  0  0
    9.0666    1.1300    0.0000 H   0  0  0  0  0  0  0  0  0  0  0  0
   12.6647   -0.3199    0.0000 H   0  0  0  0  0  0  0  0  0  0  0  0
   13.4617   -0.3199    0.0000 H   0  0  0  0  0  0  0  0  0  0  0  0
    8.2006   -0.3199    0.0000 H   0  0  0  0  0  0  0  0  0  0  0  0
    8.9976   -0.3199    0.0000 H   0  0  0  0  0  0  0  0  0  0  0  0
   14.3278    1.1300    0.0000 H   0  0  0  0  0  0  0  0  0  0  0  0
   13.5307    1.1300    0.0000 H   0  0  0  0  0  0  0  0  0  0  0  0
    8.1316    1.1300    0.0000 H   0  0  0  0  0  0  0  0  0  0  0  0
    7.3346    1.1300    0.0000 H   0  0  0  0  0  0  0  0  0  0  0  0
   14.3967   -0.3199    0.0000 H   0  0  0  0  0  0  0  0  0  0  0  0
   15.1938   -0.3199    0.0000 H   0  0  0  0  0  0  0  0  0  0  0  0
   16.0598    1.1300    0.0000 H   0  0  0  0  0  0  0  0  0  0  0  0
   15.2628    1.1300    0.0000 H   0  0  0  0  0  0  0  0  0  0  0  0
    6.4685   -0.3199    0.0000 H   0  0  0  0  0  0  0  0  0  0  0  0
    7.2656   -0.3199    0.0000 H   0  0  0  0  0  0  0  0  0  0  0  0
   16.1288   -0.3199    0.0000 H   0  0  0  0  0  0  0  0  0  0  0  0
   16.9258   -0.3199    0.0000 H   0  0  0  0  0  0  0  0  0  0  0  0
   17.7919    1.1300    0.0000 H   0  0  0  0  0  0  0  0  0  0  0  0
   16.9948    1.1300    0.0000 H   0  0  0  0  0  0  0  0  0  0  0  0
   17.8608   -0.3199    0.0000 H   0  0  0  0  0  0  0  0  0  0  0  0
   18.6579   -0.3199    0.0000 H   0  0  0  0  0  0  0  0  0  0  0  0
    5.1350    0.7750    0.0000 H   0  0  0  0  0  0  0  0  0  0  0  0
    3.7320    0.9650    0.0000 H   0  0  0  0  0  0  0  0  0  0  0  0
   19.4354    0.1181    0.0000 H   0  0  0  0  0  0  0  0  0  0  0  0
   19.6623    0.9650    0.0000 H   0  0  0  0  0  0  0  0  0  0  0  0
   18.8154    1.1919    0.0000 H   0  0  0  0  0  0  0  0  0  0  0  0
    3.7320    1.9650    0.0000 H   0  0  0  0  0  0  0  0  0  0  0  0
    4.2690   -1.9650    0.0000 H   0  0  0  0  0  0  0  0  0  0  0  0
    2.0000    0.3450    0.0000 H   0  0  0  0  0  0  0  0  0  0  0  0
  1  8  1  0  0  0  0
  1  9  1  0  0  0  0
  2 18  1  0  0  0  0
  2 22  1  0  0  0  0
  3 23  1  0  0  0  0
  3 58  1  0  0  0  0
  4 25  1  0  0  0  0
  4 59  1  0  0  0  0
  5 25  2  0  0  0  0
  6 26  1  0  0  0  0
  6 60  1  0  0  0  0
  7 26  2  0  0  0  0
  8  9  1  0  0  0  0
  8 10  1  0  0  0  0
  8 27  1  0  0  0  0
  9 11  1  0  0  0  0
  9 28  1  0  0  0  0
 10 12  1  0  0  0  0
 10 29  1  0  0  0  0
 10 30  1  0  0  0  0
 11 13  1  0  0  0  0
 11 31  1  0  0  0  0
 11 32  1  0  0  0  0
 12 14  1  0  0  0  0
 12 33  1  0  0  0  0
 12 34  1  0  0  0  0
 13 15  1  0  0  0  0
 13 35  1  0  0  0  0
 13 36  1  0  0  0  0
 14 16  1  0  0  0  0
 14 37  1  0  0  0  0
 14 38  1  0  0  0  0
 15 18  1  0  0  0  0
 15 39  1  0  0  0  0
 15 40  1  0  0  0  0
 16 17  1  0  0  0  0
 16 41  1  0  0  0  0
 16 42  1  0  0  0  0
 17 19  1  0  0  0  0
 17 43  1  0  0  0  0
 17 44  1  0  0  0  0
 18 45  1  0  0  0  0
 18 46  1  0  0  0  0
 19 20  1  0  0  0  0
 19 47  1  0  0  0  0
 19 48  1  0  0  0  0
 20 21  1  0  0  0  0
 20 49  1  0  0  0  0
 20 50  1  0  0  0  0
 21 24  1  0  0  0  0
 21 51  1  0  0  0  0
 21 52  1  0  0  0  0
 22 23  1  0  0  0  0
 22 25  1  0  0  0  0
 22 53  1  0  0  0  0
 23 26  1  0  0  0  0
 23 54  1  0  0  0  0
 24 55  1  0  0  0  0
 24 56  1  0  0  0  0
 24 57  1  0  0  0  0
M  END
> <PUBCHEM_COMPOUND_CID>
88745704

> <PUBCHEM_COMPOUND_CANONICALIZED>
1

> <PUBCHEM_CACTVS_COMPLEXITY>
413

> <PUBCHEM_CACTVS_HBOND_ACCEPTOR>
7

> <PUBCHEM_CACTVS_HBOND_DONOR>
3

> <PUBCHEM_CACTVS_ROTATABLE_BOND>
17

> <PUBCHEM_CACTVS_SUBSKEYS>
AAADcfB4OAAAAAAAAAAAAAAAEgAAAAAAAAAAAAAAAAAAAAAAAAAAGgAACAAACBSggAICCAAABgAIAACQCAIAAAAAAAAAAAFAAAABEBYAAAQCQAAFIAADAAHD4KwAAAAAAAAAAAAAAAAAAAAAAAAAAAAAAA==

> <PUBCHEM_IUPAC_OPENEYE_NAME>
2-hydroxy-3-[4-(3-nonyloxiran-2-yl)butoxy]butanedioic acid

> <PUBCHEM_IUPAC_CAS_NAME>
2-hydroxy-3-[4-(3-nonyl-2-oxiranyl)butoxy]butanedioic acid

> <PUBCHEM_IUPAC_NAME_MARKUP>
2-hydroxy-3-[4-(3-nonyloxiran-2-yl)butoxy]butanedioic acid

> <PUBCHEM_IUPAC_NAME>
2-hydroxy-3-[4-(3-nonyloxiran-2-yl)butoxy]butanedioic acid

> <PUBCHEM_IUPAC_SYSTEMATIC_NAME>
2-[4-(3-nonyloxiran-2-yl)butoxy]-3-oxidanyl-butanedioic acid

> <PUBCHEM_IUPAC_TRADITIONAL_NAME>
2-hydroxy-3-[4-(3-nonyloxiran-2-yl)butoxy]succinic acid

> <PUBCHEM_IUPAC_INCHI>
InChI=1S/C19H34O7/c1-2-3-4-5-6-7-8-11-14-15(26-14)12-9-10-13-25-17(19(23)24)16(20)18(21)22/h14-17,20H,2-13H2,1H3,(H,21,22)(H,23,24)

> <PUBCHEM_IUPAC_INCHIKEY>
UCHCZLUIJNLVHG-UHFFFAOYSA-N

> <PUBCHEM_XLOGP3_AA>
4

> <PUBCHEM_EXACT_MASS>
374.23045342

> <PUBCHEM_MOLECULAR_FORMULA>
C19H34O7

> <PUBCHEM_MOLECULAR_WEIGHT>
374.5

> <PUBCHEM_OPENEYE_CAN_SMILES>
CCCCCCCCCC1C(O1)CCCCOC(C(C(=O)O)O)C(=O)O

> <PUBCHEM_OPENEYE_ISO_SMILES>
CCCCCCCCCC1C(O1)CCCCOC(C(C(=O)O)O)C(=O)O

> <PUBCHEM_CACTVS_TPSA>
117

> <PUBCHEM_MONOISOTOPIC_WEIGHT>
374.23045342

> <PUBCHEM_TOTAL_CHARGE>
0

> <PUBCHEM_HEAVY_ATOM_COUNT>
26

> <PUBCHEM_ATOM_DEF_STEREO_COUNT>
0

> <PUBCHEM_ATOM_UDEF_STEREO_COUNT>
4

> <PUBCHEM_BOND_DEF_STEREO_COUNT>
0

> <PUBCHEM_BOND_UDEF_STEREO_COUNT>
0

> <PUBCHEM_ISOTOPIC_ATOM_COUNT>
0

> <PUBCHEM_COMPONENT_COUNT>
1

> <PUBCHEM_CACTVS_TAUTO_COUNT>
-1

> <PUBCHEM_COORDINATE_TYPE>
1
5
255

> <PUBCHEM_BONDANNOTATIONS>
22  25  3
23  3  3
8  10  3
9  11  3

$$$$
