 
  -OEChem-10192103442D

 21 20  0     1  0  0  0  0  0999 V2000
    5.1350    2.0950    0.0000 O   0  0  0  0  0  0  0  0  0  0  0  0
    6.8671    1.0950    0.0000 O   0  0  0  0  0  0  0  0  0  0  0  0
    2.5369    0.5950    0.0000 O   0  0  0  0  0  0  0  0  0  0  0  0
    3.4030    2.0950    0.0000 O   0  0  0  0  0  0  0  0  0  0  0  0
    5.1350    1.0950    0.0000 C   0  0  3  0  0  0  0  0  0  0  0  0
    4.2690    0.5950    0.0000 C   0  0  3  0  0  0  0  0  0  0  0  0
    6.0010    0.5950    0.0000 C   0  0  0  0  0  0  0  0  0  0  0  0
    3.4030    1.0950    0.0000 C   0  0  0  0  0  0  0  0  0  0  0  0
    4.2690   -0.4050    0.0000 C   0  0  0  0  0  0  0  0  0  0  0  0
    4.2690   -1.4050    0.0000 C   0  0  0  0  0  0  0  0  0  0  0  0
    4.2690   -2.4050    0.0000 C   0  0  0  0  0  0  0  0  0  0  0  0
    5.6720    1.4050    0.0000 H   0  0  0  0  0  0  0  0  0  0  0  0
    4.2690    1.2150    0.0000 H   0  0  0  0  0  0  0  0  0  0  0  0
    5.6025    0.1201    0.0000 H   0  0  0  0  0  0  0  0  0  0  0  0
    6.3996    0.1201    0.0000 H   0  0  0  0  0  0  0  0  0  0  0  0
    5.6720    2.4050    0.0000 H   0  0  0  0  0  0  0  0  0  0  0  0
    7.4040    0.7850    0.0000 H   0  0  0  0  0  0  0  0  0  0  0  0
    2.0000    0.9050    0.0000 H   0  0  0  0  0  0  0  0  0  0  0  0
    3.6490   -2.4050    0.0000 H   0  0  0  0  0  0  0  0  0  0  0  0
    4.2690   -3.0250    0.0000 H   0  0  0  0  0  0  0  0  0  0  0  0
    4.8890   -2.4050    0.0000 H   0  0  0  0  0  0  0  0  0  0  0  0
  1  5  1  0  0  0  0
  1 16  1  0  0  0  0
  2  7  1  0  0  0  0
  2 17  1  0  0  0  0
  3  8  1  0  0  0  0
  3 18  1  0  0  0  0
  4  8  2  0  0  0  0
  5  6  1  0  0  0  0
  5  7  1  0  0  0  0
  5 12  1  0  0  0  0
  6  8  1  0  0  0  0
  6  9  1  0  0  0  0
  6 13  1  0  0  0  0
  7 14  1  0  0  0  0
  7 15  1  0  0  0  0
  9 10  3  0  0  0  0
 10 11  1  0  0  0  0
 11 19  1  0  0  0  0
 11 20  1  0  0  0  0
 11 21  1  0  0  0  0
M  END
> <PUBCHEM_COMPOUND_CID>
122530227

> <PUBCHEM_COMPOUND_CANONICALIZED>
1

> <PUBCHEM_CACTVS_COMPLEXITY>
197

> <PUBCHEM_CACTVS_HBOND_ACCEPTOR>
4

> <PUBCHEM_CACTVS_HBOND_DONOR>
3

> <PUBCHEM_CACTVS_ROTATABLE_BOND>
3

> <PUBCHEM_CACTVS_SUBSKEYS>
AAADccBgOAAAAAAAAAAAAAAAAAAAAAAAAAAAAAAAAAAAAAAAAAAAGgAACAAADRSggAICCAAAAgBIEACQCAgAAAAAAAAAAAEAAAABEBQAAAAAQAAFIAABAABCAAAIAAAAAAAAAAAAAAAAAAAAAAAAAAAAAA==

> <PUBCHEM_IUPAC_OPENEYE_NAME>
2-(1,2-dihydroxyethyl)pent-3-ynoic acid

> <PUBCHEM_IUPAC_CAS_NAME>
2-(1,2-dihydroxyethyl)-3-pentynoic acid

> <PUBCHEM_IUPAC_NAME_MARKUP>
2-(1,2-dihydroxyethyl)pent-3-ynoic acid

> <PUBCHEM_IUPAC_NAME>
2-(1,2-dihydroxyethyl)pent-3-ynoic acid

> <PUBCHEM_IUPAC_SYSTEMATIC_NAME>
2-[1,2-bis(oxidanyl)ethyl]pent-3-ynoic acid

> <PUBCHEM_IUPAC_TRADITIONAL_NAME>
2-(1,2-dihydroxyethyl)pent-3-ynoic acid

> <PUBCHEM_IUPAC_INCHI>
InChI=1S/C7H10O4/c1-2-3-5(7(10)11)6(9)4-8/h5-6,8-9H,4H2,1H3,(H,10,11)

> <PUBCHEM_IUPAC_INCHIKEY>
XWTGLTKQWUSTBX-UHFFFAOYSA-N

> <PUBCHEM_XLOGP3_AA>
-0.8

> <PUBCHEM_EXACT_MASS>
158.05790880

> <PUBCHEM_MOLECULAR_FORMULA>
C7H10O4

> <PUBCHEM_MOLECULAR_WEIGHT>
158.15

> <PUBCHEM_OPENEYE_CAN_SMILES>
CC#CC(C(CO)O)C(=O)O

> <PUBCHEM_OPENEYE_ISO_SMILES>
CC#CC(C(CO)O)C(=O)O

> <PUBCHEM_CACTVS_TPSA>
77.8

> <PUBCHEM_MONOISOTOPIC_WEIGHT>
158.05790880

> <PUBCHEM_TOTAL_CHARGE>
0

> <PUBCHEM_HEAVY_ATOM_COUNT>
11

> <PUBCHEM_ATOM_DEF_STEREO_COUNT>
0

> <PUBCHEM_ATOM_UDEF_STEREO_COUNT>
2

> <PUBCHEM_BOND_DEF_STEREO_COUNT>
0

> <PUBCHEM_BOND_UDEF_STEREO_COUNT>
0

> <PUBCHEM_ISOTOPIC_ATOM_COUNT>
0

> <PUBCHEM_COMPONENT_COUNT>
1

> <PUBCHEM_CACTVS_TAUTO_COUNT>
-1

> <PUBCHEM_COORDINATE_TYPE>
1
5
255

> <PUBCHEM_BONDANNOTATIONS>
5  1  3
6  9  3

$$$$
