 
  -OEChem-10192103362D

 33 33  0     1  0  0  0  0  0999 V2000
    6.1860   -2.2830    0.0000 O   0  0  0  0  0  0  0  0  0  0  0  0
    2.5896   -2.0250    0.0000 O   0  0  0  0  0  0  0  0  0  0  0  0
   10.2133    0.6431    0.0000 O   0  0  0  0  0  0  0  0  0  0  0  0
    3.1249   -0.3778    0.0000 O   0  0  0  0  0  0  0  0  0  0  0  0
    8.4813   -0.3569    0.0000 N   0  0  0  0  0  0  0  0  0  0  0  0
    5.0270   -0.9958    0.0000 N   0  0  0  0  0  0  0  0  0  0  0  0
    7.9813   -1.8958    0.0000 N   0  0  0  0  0  0  0  0  0  0  0  0
    9.2903   -0.9447    0.0000 N   0  0  0  0  0  0  0  0  0  0  0  0
    9.3473    2.1431    0.0000 N   0  0  0  0  0  0  0  0  0  0  0  0
    8.9813   -1.8958    0.0000 N   0  0  0  0  0  0  0  0  0  0  0  0
    6.7212   -0.6357    0.0000 C   0  0  0  0  0  0  0  0  0  0  0  0
    4.2839   -1.6649    0.0000 C   0  0  3  0  0  0  0  0  0  0  0  0
    7.6723   -0.9447    0.0000 C   0  0  0  0  0  0  0  0  0  0  0  0
    5.9781   -1.3048    0.0000 C   0  0  0  0  0  0  0  0  0  0  0  0
    8.4813    0.6431    0.0000 C   0  0  0  0  0  0  0  0  0  0  0  0
    4.4918   -2.6431    0.0000 C   0  0  0  0  0  0  0  0  0  0  0  0
    9.3473    1.1431    0.0000 C   0  0  0  0  0  0  0  0  0  0  0  0
    3.3328   -1.3559    0.0000 C   0  0  0  0  0  0  0  0  0  0  0  0
   10.2133    2.6431    0.0000 C   0  0  0  0  0  0  0  0  0  0  0  0
    7.0123   -0.0883    0.0000 H   0  0  0  0  0  0  0  0  0  0  0  0
    6.2326   -0.2540    0.0000 H   0  0  0  0  0  0  0  0  0  0  0  0
    4.8735   -1.8565    0.0000 H   0  0  0  0  0  0  0  0  0  0  0  0
    4.8981   -0.3893    0.0000 H   0  0  0  0  0  0  0  0  0  0  0  0
    8.2692    1.2257    0.0000 H   0  0  0  0  0  0  0  0  0  0  0  0
    7.8707    0.5354    0.0000 H   0  0  0  0  0  0  0  0  0  0  0  0
    3.8853   -2.7720    0.0000 H   0  0  0  0  0  0  0  0  0  0  0  0
    4.6207   -3.2495    0.0000 H   0  0  0  0  0  0  0  0  0  0  0  0
    5.0982   -2.5142    0.0000 H   0  0  0  0  0  0  0  0  0  0  0  0
    8.8104    2.4531    0.0000 H   0  0  0  0  0  0  0  0  0  0  0  0
   10.5233    2.1061    0.0000 H   0  0  0  0  0  0  0  0  0  0  0  0
   10.7503    2.9531    0.0000 H   0  0  0  0  0  0  0  0  0  0  0  0
    9.9033    3.1800    0.0000 H   0  0  0  0  0  0  0  0  0  0  0  0
    2.0000   -1.8335    0.0000 H   0  0  0  0  0  0  0  0  0  0  0  0
  1 14  2  0  0  0  0
  2 18  1  0  0  0  0
  2 33  1  0  0  0  0
  3 17  2  0  0  0  0
  4 18  2  0  0  0  0
  5  8  1  0  0  0  0
  5 13  1  0  0  0  0
  5 15  1  0  0  0  0
  6 12  1  0  0  0  0
  6 14  1  0  0  0  0
  6 23  1  0  0  0  0
  7 10  1  0  0  0  0
  7 13  2  0  0  0  0
  8 10  2  0  0  0  0
  9 17  1  0  0  0  0
  9 19  1  0  0  0  0
  9 29  1  0  0  0  0
 11 13  1  0  0  0  0
 11 14  1  0  0  0  0
 11 20  1  0  0  0  0
 11 21  1  0  0  0  0
 12 16  1  0  0  0  0
 12 18  1  0  0  0  0
 12 22  1  0  0  0  0
 15 17  1  0  0  0  0
 15 24  1  0  0  0  0
 15 25  1  0  0  0  0
 16 26  1  0  0  0  0
 16 27  1  0  0  0  0
 16 28  1  0  0  0  0
 19 30  1  0  0  0  0
 19 31  1  0  0  0  0
 19 32  1  0  0  0  0
M  END
> <PUBCHEM_COMPOUND_CID>
117097833

> <PUBCHEM_COMPOUND_CANONICALIZED>
1

> <PUBCHEM_CACTVS_COMPLEXITY>
363

> <PUBCHEM_CACTVS_HBOND_ACCEPTOR>
7

> <PUBCHEM_CACTVS_HBOND_DONOR>
3

> <PUBCHEM_CACTVS_ROTATABLE_BOND>
6

> <PUBCHEM_CACTVS_SUBSKEYS>
AAADccBzuAAAAAAAAAAAAAAAAAAAAWAAAAAAAAAAAAAAAAABgAAAHgAYCAAACCjBgwQDGAbIAgAqAAOwPAAAAAMAgIAVQIG4AACCQAgASCAUQAAAFgKQAAAAAAAAAAAAAAAAAAAAAAAAAAAAAAAAAAAAAA==

> <PUBCHEM_IUPAC_OPENEYE_NAME>
2-[[2-[1-[2-(methylamino)-2-oxo-ethyl]tetrazol-5-yl]acetyl]amino]propanoic acid

> <PUBCHEM_IUPAC_CAS_NAME>
2-[[2-[1-[2-(methylamino)-2-oxoethyl]-5-tetrazolyl]-1-oxoethyl]amino]propanoic acid

> <PUBCHEM_IUPAC_NAME_MARKUP>
2-[[2-[1-[2-(methylamino)-2-oxoethyl]tetrazol-5-yl]acetyl]amino]propanoic acid

> <PUBCHEM_IUPAC_NAME>
2-[[2-[1-[2-(methylamino)-2-oxoethyl]tetrazol-5-yl]acetyl]amino]propanoic acid

> <PUBCHEM_IUPAC_SYSTEMATIC_NAME>
2-[2-[1-[2-(methylamino)-2-oxidanylidene-ethyl]-1,2,3,4-tetrazol-5-yl]ethanoylamino]propanoic acid

> <PUBCHEM_IUPAC_TRADITIONAL_NAME>
2-[[2-[1-[2-keto-2-(methylamino)ethyl]tetrazol-5-yl]acetyl]amino]propionic acid

> <PUBCHEM_IUPAC_INCHI>
InChI=1S/C9H14N6O4/c1-5(9(18)19)11-7(16)3-6-12-13-14-15(6)4-8(17)10-2/h5H,3-4H2,1-2H3,(H,10,17)(H,11,16)(H,18,19)

> <PUBCHEM_IUPAC_INCHIKEY>
NLVZBFTYSZATNR-UHFFFAOYSA-N

> <PUBCHEM_XLOGP3_AA>
-1.7

> <PUBCHEM_EXACT_MASS>
270.10765295

> <PUBCHEM_MOLECULAR_FORMULA>
C9H14N6O4

> <PUBCHEM_MOLECULAR_WEIGHT>
270.25

> <PUBCHEM_OPENEYE_CAN_SMILES>
CC(C(=O)O)NC(=O)CC1=NN=NN1CC(=O)NC

> <PUBCHEM_OPENEYE_ISO_SMILES>
CC(C(=O)O)NC(=O)CC1=NN=NN1CC(=O)NC

> <PUBCHEM_CACTVS_TPSA>
139

> <PUBCHEM_MONOISOTOPIC_WEIGHT>
270.10765295

> <PUBCHEM_TOTAL_CHARGE>
0

> <PUBCHEM_HEAVY_ATOM_COUNT>
19

> <PUBCHEM_ATOM_DEF_STEREO_COUNT>
0

> <PUBCHEM_ATOM_UDEF_STEREO_COUNT>
1

> <PUBCHEM_BOND_DEF_STEREO_COUNT>
0

> <PUBCHEM_BOND_UDEF_STEREO_COUNT>
0

> <PUBCHEM_ISOTOPIC_ATOM_COUNT>
0

> <PUBCHEM_COMPONENT_COUNT>
1

> <PUBCHEM_CACTVS_TAUTO_COUNT>
-1

> <PUBCHEM_COORDINATE_TYPE>
1
5
255

> <PUBCHEM_BONDANNOTATIONS>
12  16  3
5  13  8
5  8  8
7  10  8
7  13  8
8  10  8

$$$$
