 
  -OEChem-10192103552D

 55 58  0     1  0  0  0  0  0999 V2000
    8.6179    1.1708    0.0000 O   0  0  0  0  0  0  0  0  0  0  0  0
    3.4092    1.4012    0.0000 O   0  0  0  0  0  0  0  0  0  0  0  0
    4.5699    2.2092    0.0000 O   0  0  0  0  0  0  0  0  0  0  0  0
    2.3052   -2.1910    0.0000 O   0  0  0  0  0  0  0  0  0  0  0  0
    3.8128   -3.0437    0.0000 O   0  0  0  0  0  0  0  0  0  0  0  0
    6.5090    0.3000    0.0000 C   0  0  1  0  0  0  0  0  0  0  0  0
    5.6405    0.7956    0.0000 C   0  0  2  0  0  0  0  0  0  0  0  0
    4.7330    0.2843    0.0000 C   0  0  1  0  0  0  0  0  0  0  0  0
    6.4845    1.4813    0.0000 C   0  0  0  0  0  0  0  0  0  0  0  0
    7.1606    2.4504    0.0000 C   0  0  2  0  0  0  0  0  0  0  0  0
    4.7302   -0.7574    0.0000 C   0  0  2  0  0  0  0  0  0  0  0  0
    7.4380    0.6699    0.0000 C   0  0  0  0  0  0  0  0  0  0  0  0
    6.5302   -0.7415    0.0000 C   0  0  0  0  0  0  0  0  0  0  0  0
    7.7280    1.6270    0.0000 C   0  0  1  0  0  0  0  0  0  0  0  0
    5.4865    1.7837    0.0000 C   0  0  0  0  0  0  0  0  0  0  0  0
    5.6349   -1.2737    0.0000 C   0  0  0  0  0  0  0  0  0  0  0  0
    6.1630    2.5201    0.0000 C   0  0  0  0  0  0  0  0  0  0  0  0
    3.7975   -1.3118    0.0000 C   0  0  2  0  0  0  0  0  0  0  0  0
    3.8034    0.8437    0.0000 C   0  0  0  0  0  0  0  0  0  0  0  0
    2.8552   -0.7740    0.0000 C   0  0  0  0  0  0  0  0  0  0  0  0
    2.8582    0.3110    0.0000 C   0  0  0  0  0  0  0  0  0  0  0  0
    4.3936    1.2249    0.0000 C   0  0  0  0  0  0  0  0  0  0  0  0
    8.4369    2.3323    0.0000 C   0  0  0  0  0  0  0  0  0  0  0  0
    4.3052   -2.1733    0.0000 C   0  0  0  0  0  0  0  0  0  0  0  0
    3.3052   -2.1822    0.0000 C   0  0  0  0  0  0  0  0  0  0  0  0
    4.9023    1.2170    0.0000 H   0  0  0  0  0  0  0  0  0  0  0  0
    6.1103    1.9756    0.0000 H   0  0  0  0  0  0  0  0  0  0  0  0
    5.8988    1.2778    0.0000 H   0  0  0  0  0  0  0  0  0  0  0  0
    7.4071    3.2639    0.0000 H   0  0  0  0  0  0  0  0  0  0  0  0
    4.7377   -1.6073    0.0000 H   0  0  0  0  0  0  0  0  0  0  0  0
    7.5335    0.0573    0.0000 H   0  0  0  0  0  0  0  0  0  0  0  0
    8.0565    0.6267    0.0000 H   0  0  0  0  0  0  0  0  0  0  0  0
    6.7512   -1.3208    0.0000 H   0  0  0  0  0  0  0  0  0  0  0  0
    7.1388   -0.6229    0.0000 H   0  0  0  0  0  0  0  0  0  0  0  0
    5.1347    2.2942    0.0000 H   0  0  0  0  0  0  0  0  0  0  0  0
    4.9105    1.5543    0.0000 H   0  0  0  0  0  0  0  0  0  0  0  0
    5.2399   -1.7516    0.0000 H   0  0  0  0  0  0  0  0  0  0  0  0
    6.0382   -1.7446    0.0000 H   0  0  0  0  0  0  0  0  0  0  0  0
    6.3428    3.1135    0.0000 H   0  0  0  0  0  0  0  0  0  0  0  0
    5.6246    2.8275    0.0000 H   0  0  0  0  0  0  0  0  0  0  0  0
    4.2093    1.3124    0.0000 H   0  0  0  0  0  0  0  0  0  0  0  0
    3.4111    1.3238    0.0000 H   0  0  0  0  0  0  0  0  0  0  0  0
    2.2446   -0.6662    0.0000 H   0  0  0  0  0  0  0  0  0  0  0  0
    2.6446   -1.3571    0.0000 H   0  0  0  0  0  0  0  0  0  0  0  0
    2.6507    0.8953    0.0000 H   0  0  0  0  0  0  0  0  0  0  0  0
    2.2470    0.2066    0.0000 H   0  0  0  0  0  0  0  0  0  0  0  0
    8.8742    1.8928    0.0000 H   0  0  0  0  0  0  0  0  0  0  0  0
    8.8764    2.7696    0.0000 H   0  0  0  0  0  0  0  0  0  0  0  0
    7.9996    2.7718    0.0000 H   0  0  0  0  0  0  0  0  0  0  0  0
    3.7710   -2.4881    0.0000 H   0  0  0  0  0  0  0  0  0  0  0  0
    4.6199   -2.7075    0.0000 H   0  0  0  0  0  0  0  0  0  0  0  0
    4.8393   -1.8586    0.0000 H   0  0  0  0  0  0  0  0  0  0  0  0
    9.1387    1.5071    0.0000 H   0  0  0  0  0  0  0  0  0  0  0  0
    3.1988    1.9844    0.0000 H   0  0  0  0  0  0  0  0  0  0  0  0
    2.0000   -2.7307    0.0000 H   0  0  0  0  0  0  0  0  0  0  0  0
 14  1  1  6  0  0  0
  1 53  1  0  0  0  0
  2 22  1  0  0  0  0
  2 54  1  0  0  0  0
  3 22  2  0  0  0  0
  4 25  1  0  0  0  0
  4 55  1  0  0  0  0
  5 25  2  0  0  0  0
  6  7  1  0  0  0  0
  6  9  1  0  0  0  0
  6 12  1  0  0  0  0
  6 13  1  6  0  0  0
  7  8  1  0  0  0  0
  7 15  1  0  0  0  0
  7 26  1  1  0  0  0
  8 11  1  0  0  0  0
  8 19  1  0  0  0  0
  8 22  1  6  0  0  0
  9 10  1  0  0  0  0
  9 27  1  0  0  0  0
  9 28  1  0  0  0  0
 10 14  1  0  0  0  0
 10 17  1  0  0  0  0
 10 29  1  6  0  0  0
 11 16  1  0  0  0  0
 11 18  1  0  0  0  0
 11 30  1  1  0  0  0
 12 14  1  0  0  0  0
 12 31  1  0  0  0  0
 12 32  1  0  0  0  0
 13 16  1  0  0  0  0
 13 33  1  0  0  0  0
 13 34  1  0  0  0  0
 14 23  1  0  0  0  0
 15 17  1  0  0  0  0
 15 35  1  0  0  0  0
 15 36  1  0  0  0  0
 16 37  1  0  0  0  0
 16 38  1  0  0  0  0
 17 39  1  0  0  0  0
 17 40  1  0  0  0  0
 18 20  1  0  0  0  0
 18 24  1  1  0  0  0
 18 25  1  0  0  0  0
 19 21  1  0  0  0  0
 19 41  1  0  0  0  0
 19 42  1  0  0  0  0
 20 21  1  0  0  0  0
 20 43  1  0  0  0  0
 20 44  1  0  0  0  0
 21 45  1  0  0  0  0
 21 46  1  0  0  0  0
 23 47  1  0  0  0  0
 23 48  1  0  0  0  0
 23 49  1  0  0  0  0
 24 50  1  0  0  0  0
 24 51  1  0  0  0  0
 24 52  1  0  0  0  0
M  END
> <PUBCHEM_COMPOUND_CID>
21593277

> <PUBCHEM_COMPOUND_CANONICALIZED>
1

> <PUBCHEM_CACTVS_COMPLEXITY>
632

> <PUBCHEM_CACTVS_HBOND_ACCEPTOR>
5

> <PUBCHEM_CACTVS_HBOND_DONOR>
3

> <PUBCHEM_CACTVS_ROTATABLE_BOND>
2

> <PUBCHEM_CACTVS_SUBSKEYS>
AAADceB4OAAAAAAAAAAAAAAAAAAAAYAAAAAwYMAABgAAAADAAAAAGgAACAAAD0SAgAACCAAAAgAIAACQCAAAAAAAAAAAAAEAAAAAABIAAAAAQAAEAAAAAAGI7vCPgAAAAAAAAACAAAQAACAAAYAADAAAAA==

> <PUBCHEM_IUPAC_OPENEYE_NAME>
(1S,4R,5R,9R,10R,13R,14R)-14-hydroxy-5,14-dimethyl-tetracyclo[11.2.1.01,10.04,9]hexadecane-5,9-dicarboxylic acid

> <PUBCHEM_IUPAC_CAS_NAME>
(1S,4R,5R,9R,10R,13R,14R)-14-hydroxy-5,14-dimethyltetracyclo[11.2.1.01,10.04,9]hexadecane-5,9-dicarboxylic acid

> <PUBCHEM_IUPAC_NAME_MARKUP>
(1<I>S</I>,4<I>R</I>,5<I>R</I>,9<I>R</I>,10<I>R</I>,13<I>R</I>,14<I>R</I>)-14-hydroxy-5,14-dimethyltetracyclo[11.2.1.0<SUP>1,10</SUP>.0<SUP>4,9</SUP>]hexadecane-5,9-dicarboxylic acid

> <PUBCHEM_IUPAC_NAME>
(1S,4R,5R,9R,10R,13R,14R)-14-hydroxy-5,14-dimethyltetracyclo[11.2.1.01,10.04,9]hexadecane-5,9-dicarboxylic acid

> <PUBCHEM_IUPAC_SYSTEMATIC_NAME>
(1S,4R,5R,9R,10R,13R,14R)-5,14-dimethyl-14-oxidanyl-tetracyclo[11.2.1.01,10.04,9]hexadecane-5,9-dicarboxylic acid

> <PUBCHEM_IUPAC_TRADITIONAL_NAME>
(1S,4R,5R,9R,10R,13R,14R)-14-hydroxy-5,14-dimethyl-tetracyclo[11.2.1.01,10.04,9]hexadecane-5,9-dicarboxylic acid

> <PUBCHEM_IUPAC_INCHI>
InChI=1S/C20H30O5/c1-17(15(21)22)7-3-8-20(16(23)24)13(17)6-9-19-10-12(4-5-14(19)20)18(2,25)11-19/h12-14,25H,3-11H2,1-2H3,(H,21,22)(H,23,24)/t12-,13-,14-,17-,18-,19+,20+/m1/s1

> <PUBCHEM_IUPAC_INCHIKEY>
CDKNUBLSEZJSAU-YIXWCVDNSA-N

> <PUBCHEM_XLOGP3_AA>
3

> <PUBCHEM_EXACT_MASS>
350.20932405

> <PUBCHEM_MOLECULAR_FORMULA>
C20H30O5

> <PUBCHEM_MOLECULAR_WEIGHT>
350.4

> <PUBCHEM_OPENEYE_CAN_SMILES>
CC1(CCCC2(C1CCC34C2CCC(C3)C(C4)(C)O)C(=O)O)C(=O)O

> <PUBCHEM_OPENEYE_ISO_SMILES>
C[C@]1(CCC[C@@]2([C@@H]1CC[C@]34[C@H]2CC[C@H](C3)[C@](C4)(C)O)C(=O)O)C(=O)O

> <PUBCHEM_CACTVS_TPSA>
94.8

> <PUBCHEM_MONOISOTOPIC_WEIGHT>
350.20932405

> <PUBCHEM_TOTAL_CHARGE>
0

> <PUBCHEM_HEAVY_ATOM_COUNT>
25

> <PUBCHEM_ATOM_DEF_STEREO_COUNT>
7

> <PUBCHEM_ATOM_UDEF_STEREO_COUNT>
0

> <PUBCHEM_BOND_DEF_STEREO_COUNT>
0

> <PUBCHEM_BOND_UDEF_STEREO_COUNT>
0

> <PUBCHEM_ISOTOPIC_ATOM_COUNT>
0

> <PUBCHEM_COMPONENT_COUNT>
1

> <PUBCHEM_CACTVS_TAUTO_COUNT>
-1

> <PUBCHEM_COORDINATE_TYPE>
1
5
255

> <PUBCHEM_BONDANNOTATIONS>
14  1  6
10  29  6
11  30  5
18  24  5
6  13  6
7  26  5
8  22  6

$$$$
