 
  -OEChem-10192104152D

 44 44  0     1  0  0  0  0  0999 V2000
    3.7601   -2.3856    0.0000 S   0  0  0  0  0  0  0  0  0  0  0  0
    3.2601   -4.9244    0.0000 O   0  0  0  0  0  0  0  0  0  0  0  0
    3.7601    0.6144    0.0000 O   0  0  0  0  0  0  0  0  0  0  0  0
    4.7601   -2.3856    0.0000 O   0  0  0  0  0  0  0  0  0  0  0  0
    2.7601   -2.3856    0.0000 O   0  0  0  0  0  0  0  0  0  0  0  0
    7.2242    4.6144    0.0000 O   0  0  0  0  0  0  0  0  0  0  0  0
    8.0902    3.1144    0.0000 O   0  0  0  0  0  0  0  0  0  0  0  0
    5.4921    0.6144    0.0000 N   0  0  0  0  0  0  0  0  0  0  0  0
    3.7601   -1.3856    0.0000 N   0  0  0  0  0  0  0  0  0  0  0  0
    4.2601   -4.9244    0.0000 N   0  0  0  0  0  0  0  0  0  0  0  0
    5.4921    1.6144    0.0000 C   0  0  3  0  0  0  0  0  0  0  0  0
    4.6261   -0.8856    0.0000 C   0  0  3  0  0  0  0  0  0  0  0  0
    6.3582    2.1144    0.0000 C   0  0  0  0  0  0  0  0  0  0  0  0
    4.6261    0.1144    0.0000 C   0  0  0  0  0  0  0  0  0  0  0  0
    4.6261    2.1144    0.0000 C   0  0  0  0  0  0  0  0  0  0  0  0
    6.3582    3.1144    0.0000 C   0  0  0  0  0  0  0  0  0  0  0  0
    3.7601   -3.3856    0.0000 C   0  0  0  0  0  0  0  0  0  0  0  0
    5.4921   -1.3856    0.0000 C   0  0  0  0  0  0  0  0  0  0  0  0
    2.9511   -3.9734    0.0000 C   0  0  0  0  0  0  0  0  0  0  0  0
    4.5691   -3.9734    0.0000 C   0  0  0  0  0  0  0  0  0  0  0  0
    7.2242    3.6144    0.0000 C   0  0  0  0  0  0  0  0  0  0  0  0
    2.0000   -3.6644    0.0000 C   0  0  0  0  0  0  0  0  0  0  0  0
    5.5202   -3.6644    0.0000 C   0  0  0  0  0  0  0  0  0  0  0  0
    4.9552    1.3044    0.0000 H   0  0  0  0  0  0  0  0  0  0  0  0
    4.6261   -1.5056    0.0000 H   0  0  0  0  0  0  0  0  0  0  0  0
    6.5702    1.5318    0.0000 H   0  0  0  0  0  0  0  0  0  0  0  0
    6.9687    2.2221    0.0000 H   0  0  0  0  0  0  0  0  0  0  0  0
    6.0291    0.3044    0.0000 H   0  0  0  0  0  0  0  0  0  0  0  0
    3.2231   -1.0756    0.0000 H   0  0  0  0  0  0  0  0  0  0  0  0
    4.9361    2.6514    0.0000 H   0  0  0  0  0  0  0  0  0  0  0  0
    4.0892    2.4244    0.0000 H   0  0  0  0  0  0  0  0  0  0  0  0
    4.3161    1.5775    0.0000 H   0  0  0  0  0  0  0  0  0  0  0  0
    6.1461    3.6970    0.0000 H   0  0  0  0  0  0  0  0  0  0  0  0
    5.7476    3.0068    0.0000 H   0  0  0  0  0  0  0  0  0  0  0  0
    5.1821   -1.9225    0.0000 H   0  0  0  0  0  0  0  0  0  0  0  0
    6.0291   -1.6956    0.0000 H   0  0  0  0  0  0  0  0  0  0  0  0
    5.8021   -0.8486    0.0000 H   0  0  0  0  0  0  0  0  0  0  0  0
    2.1916   -3.0747    0.0000 H   0  0  0  0  0  0  0  0  0  0  0  0
    1.4103   -3.4728    0.0000 H   0  0  0  0  0  0  0  0  0  0  0  0
    1.8084   -4.2540    0.0000 H   0  0  0  0  0  0  0  0  0  0  0  0
    5.7117   -4.2540    0.0000 H   0  0  0  0  0  0  0  0  0  0  0  0
    6.1098   -3.4728    0.0000 H   0  0  0  0  0  0  0  0  0  0  0  0
    5.3286   -3.0747    0.0000 H   0  0  0  0  0  0  0  0  0  0  0  0
    7.7611    4.9244    0.0000 H   0  0  0  0  0  0  0  0  0  0  0  0
  1  4  2  0  0  0  0
  1  5  2  0  0  0  0
  1  9  1  0  0  0  0
  1 17  1  0  0  0  0
  2 10  1  0  0  0  0
  2 19  1  0  0  0  0
  3 14  2  0  0  0  0
  6 21  1  0  0  0  0
  6 44  1  0  0  0  0
  7 21  2  0  0  0  0
  8 11  1  0  0  0  0
  8 14  1  0  0  0  0
  8 28  1  0  0  0  0
  9 12  1  0  0  0  0
  9 29  1  0  0  0  0
 10 20  2  0  0  0  0
 11 13  1  0  0  0  0
 11 15  1  0  0  0  0
 11 24  1  0  0  0  0
 12 14  1  0  0  0  0
 12 18  1  0  0  0  0
 12 25  1  0  0  0  0
 13 16  1  0  0  0  0
 13 26  1  0  0  0  0
 13 27  1  0  0  0  0
 15 30  1  0  0  0  0
 15 31  1  0  0  0  0
 15 32  1  0  0  0  0
 16 21  1  0  0  0  0
 16 33  1  0  0  0  0
 16 34  1  0  0  0  0
 17 19  2  0  0  0  0
 17 20  1  0  0  0  0
 18 35  1  0  0  0  0
 18 36  1  0  0  0  0
 18 37  1  0  0  0  0
 19 22  1  0  0  0  0
 20 23  1  0  0  0  0
 22 38  1  0  0  0  0
 22 39  1  0  0  0  0
 22 40  1  0  0  0  0
 23 41  1  0  0  0  0
 23 42  1  0  0  0  0
 23 43  1  0  0  0  0
M  END
> <PUBCHEM_COMPOUND_CID>
120238551

> <PUBCHEM_COMPOUND_CANONICALIZED>
1

> <PUBCHEM_CACTVS_COMPLEXITY>
532

> <PUBCHEM_CACTVS_HBOND_ACCEPTOR>
8

> <PUBCHEM_CACTVS_HBOND_DONOR>
3

> <PUBCHEM_CACTVS_ROTATABLE_BOND>
8

> <PUBCHEM_CACTVS_SUBSKEYS>
AAADceBzOABAAAAAAAAAAAAAAAAAAWAAAAAAAAAAAAAAAAABgAAAHgQUSAAACCzB1gQCjZLQAgKpAYXwWnDAABAkIAAgGLe8TFoAZhoAgJIUUYBmFhiISUKsAAAAAAAAAAAAAAAAAAAAAAAAAAAAAAAAAA==

> <PUBCHEM_IUPAC_OPENEYE_NAME>
4-[2-[(3,5-dimethylisoxazol-4-yl)sulfonylamino]propanoylamino]pentanoic acid

> <PUBCHEM_IUPAC_CAS_NAME>
4-[[2-[(3,5-dimethyl-4-isoxazolyl)sulfonylamino]-1-oxopropyl]amino]pentanoic acid

> <PUBCHEM_IUPAC_NAME_MARKUP>
4-[2-[(3,5-dimethyl-1,2-oxazol-4-yl)sulfonylamino]propanoylamino]pentanoic acid

> <PUBCHEM_IUPAC_NAME>
4-[2-[(3,5-dimethyl-1,2-oxazol-4-yl)sulfonylamino]propanoylamino]pentanoic acid

> <PUBCHEM_IUPAC_SYSTEMATIC_NAME>
4-[2-[(3,5-dimethyl-1,2-oxazol-4-yl)sulfonylamino]propanoylamino]pentanoic acid

> <PUBCHEM_IUPAC_TRADITIONAL_NAME>
4-[2-[(3,5-dimethylisoxazol-4-yl)sulfonylamino]propanoylamino]valeric acid

> <PUBCHEM_IUPAC_INCHI>
InChI=1S/C13H21N3O6S/c1-7(5-6-11(17)18)14-13(19)9(3)16-23(20,21)12-8(2)15-22-10(12)4/h7,9,16H,5-6H2,1-4H3,(H,14,19)(H,17,18)

> <PUBCHEM_IUPAC_INCHIKEY>
YSDQTXBKGAFRHY-UHFFFAOYSA-N

> <PUBCHEM_XLOGP3_AA>
0.2

> <PUBCHEM_EXACT_MASS>
347.11510657

> <PUBCHEM_MOLECULAR_FORMULA>
C13H21N3O6S

> <PUBCHEM_MOLECULAR_WEIGHT>
347.39

> <PUBCHEM_OPENEYE_CAN_SMILES>
CC1=C(C(=NO1)C)S(=O)(=O)NC(C)C(=O)NC(C)CCC(=O)O

> <PUBCHEM_OPENEYE_ISO_SMILES>
CC1=C(C(=NO1)C)S(=O)(=O)NC(C)C(=O)NC(C)CCC(=O)O

> <PUBCHEM_CACTVS_TPSA>
147

> <PUBCHEM_MONOISOTOPIC_WEIGHT>
347.11510657

> <PUBCHEM_TOTAL_CHARGE>
0

> <PUBCHEM_HEAVY_ATOM_COUNT>
23

> <PUBCHEM_ATOM_DEF_STEREO_COUNT>
0

> <PUBCHEM_ATOM_UDEF_STEREO_COUNT>
2

> <PUBCHEM_BOND_DEF_STEREO_COUNT>
0

> <PUBCHEM_BOND_UDEF_STEREO_COUNT>
0

> <PUBCHEM_ISOTOPIC_ATOM_COUNT>
0

> <PUBCHEM_COMPONENT_COUNT>
1

> <PUBCHEM_CACTVS_TAUTO_COUNT>
-1

> <PUBCHEM_COORDINATE_TYPE>
1
5
255

> <PUBCHEM_BONDANNOTATIONS>
10  20  8
11  15  3
12  18  3
17  19  8
17  20  8
2  10  8
2  19  8

$$$$
