 
  -OEChem-10192104412D

 65 67  0     0  0  0  0  0  0999 V2000
    2.1077    0.0698    0.0000 O   0  0  0  0  0  0  0  0  0  0  0  0
    2.8737    1.3966    0.0000 O   0  0  0  0  0  0  0  0  0  0  0  0
    2.9474   -3.7310    0.0000 O   0  0  0  0  0  0  0  0  0  0  0  0
    4.6794   -3.7310    0.0000 O   0  0  0  0  0  0  0  0  0  0  0  0
    4.5794    0.4118    0.0000 C   0  0  0  0  0  0  0  0  0  0  0  0
    3.8134   -0.2310    0.0000 C   0  0  0  0  0  0  0  0  0  0  0  0
    5.5191    0.0698    0.0000 C   0  0  0  0  0  0  0  0  0  0  0  0
    4.7531    1.3966    0.0000 C   0  0  0  0  0  0  0  0  0  0  0  0
    2.9474   -0.7310    0.0000 C   0  0  0  0  0  0  0  0  0  0  0  0
    4.6794   -0.7310    0.0000 C   0  0  0  0  0  0  0  0  0  0  0  0
    5.6928   -0.9150    0.0000 C   0  0  0  0  0  0  0  0  0  0  0  0
    6.2852    0.7125    0.0000 C   0  0  0  0  0  0  0  0  0  0  0  0
    5.6928    1.7386    0.0000 C   0  0  0  0  0  0  0  0  0  0  0  0
    3.9870    2.0394    0.0000 C   0  0  0  0  0  0  0  0  0  0  0  0
    2.9474   -1.7310    0.0000 C   0  0  0  0  0  0  0  0  0  0  0  0
    4.6794   -1.7310    0.0000 C   0  0  0  0  0  0  0  0  0  0  0  0
    6.6325   -1.2571    0.0000 C   0  0  0  0  0  0  0  0  0  0  0  0
    7.2249    0.3705    0.0000 C   0  0  0  0  0  0  0  0  0  0  0  0
    5.8664    2.7234    0.0000 C   0  0  0  0  0  0  0  0  0  0  0  0
    4.1607    3.0242    0.0000 C   0  0  0  0  0  0  0  0  0  0  0  0
    3.8134   -2.2310    0.0000 C   0  0  0  0  0  0  0  0  0  0  0  0
    7.3985   -0.6143    0.0000 C   0  0  0  0  0  0  0  0  0  0  0  0
    5.1004    3.3662    0.0000 C   0  0  0  0  0  0  0  0  0  0  0  0
    3.0473    0.4118    0.0000 C   0  0  0  0  0  0  0  0  0  0  0  0
    8.3382   -0.9563    0.0000 C   0  0  0  0  0  0  0  0  0  0  0  0
    5.2740    4.3510    0.0000 C   0  0  0  0  0  0  0  0  0  0  0  0
    3.8134   -3.2310    0.0000 C   0  0  0  0  0  0  0  0  0  0  0  0
    4.0425    0.7218    0.0000 H   0  0  0  0  0  0  0  0  0  0  0  0
    5.0442   -0.3288    0.0000 H   0  0  0  0  0  0  0  0  0  0  0  0
    4.1705    1.1845    0.0000 H   0  0  0  0  0  0  0  0  0  0  0  0
    2.7353   -0.1484    0.0000 H   0  0  0  0  0  0  0  0  0  0  0  0
    2.3368   -0.8387    0.0000 H   0  0  0  0  0  0  0  0  0  0  0  0
    5.2900   -0.8387    0.0000 H   0  0  0  0  0  0  0  0  0  0  0  0
    4.8915   -0.1484    0.0000 H   0  0  0  0  0  0  0  0  0  0  0  0
    5.0728   -0.9150    0.0000 H   0  0  0  0  0  0  0  0  0  0  0  0
    5.5851   -1.5256    0.0000 H   0  0  0  0  0  0  0  0  0  0  0  0
    6.5952    1.2495    0.0000 H   0  0  0  0  0  0  0  0  0  0  0  0
    5.8102    1.1111    0.0000 H   0  0  0  0  0  0  0  0  0  0  0  0
    5.8004    1.1280    0.0000 H   0  0  0  0  0  0  0  0  0  0  0  0
    6.3128    1.7386    0.0000 H   0  0  0  0  0  0  0  0  0  0  0  0
    3.4044    2.2514    0.0000 H   0  0  0  0  0  0  0  0  0  0  0  0
    3.6770    1.5024    0.0000 H   0  0  0  0  0  0  0  0  0  0  0  0
    2.3368   -1.6234    0.0000 H   0  0  0  0  0  0  0  0  0  0  0  0
    2.7353   -2.3136    0.0000 H   0  0  0  0  0  0  0  0  0  0  0  0
    4.8915   -2.3136    0.0000 H   0  0  0  0  0  0  0  0  0  0  0  0
    5.2900   -1.6234    0.0000 H   0  0  0  0  0  0  0  0  0  0  0  0
    6.3225   -1.7940    0.0000 H   0  0  0  0  0  0  0  0  0  0  0  0
    7.1074   -1.6556    0.0000 H   0  0  0  0  0  0  0  0  0  0  0  0
    7.8449    0.3705    0.0000 H   0  0  0  0  0  0  0  0  0  0  0  0
    7.3325    0.9811    0.0000 H   0  0  0  0  0  0  0  0  0  0  0  0
    6.4490    2.5114    0.0000 H   0  0  0  0  0  0  0  0  0  0  0  0
    6.1764    3.2604    0.0000 H   0  0  0  0  0  0  0  0  0  0  0  0
    4.0530    3.6348    0.0000 H   0  0  0  0  0  0  0  0  0  0  0  0
    3.5407    3.0242    0.0000 H   0  0  0  0  0  0  0  0  0  0  0  0
    3.2765   -2.5410    0.0000 H   0  0  0  0  0  0  0  0  0  0  0  0
    7.8735   -0.2158    0.0000 H   0  0  0  0  0  0  0  0  0  0  0  0
    5.6830    3.5782    0.0000 H   0  0  0  0  0  0  0  0  0  0  0  0
    8.1262   -1.5389    0.0000 H   0  0  0  0  0  0  0  0  0  0  0  0
    8.9208   -1.1684    0.0000 H   0  0  0  0  0  0  0  0  0  0  0  0
    8.5503   -0.3737    0.0000 H   0  0  0  0  0  0  0  0  0  0  0  0
    5.8846    4.2434    0.0000 H   0  0  0  0  0  0  0  0  0  0  0  0
    5.3817    4.9616    0.0000 H   0  0  0  0  0  0  0  0  0  0  0  0
    4.6635    4.4587    0.0000 H   0  0  0  0  0  0  0  0  0  0  0  0
    2.0000   -0.5408    0.0000 H   0  0  0  0  0  0  0  0  0  0  0  0
    2.9474   -4.3510    0.0000 H   0  0  0  0  0  0  0  0  0  0  0  0
  1 24  1  0  0  0  0
  1 64  1  0  0  0  0
  2 24  2  0  0  0  0
  3 27  1  0  0  0  0
  3 65  1  0  0  0  0
  4 27  2  0  0  0  0
  5  6  1  0  0  0  0
  5  7  1  0  0  0  0
  5  8  1  0  0  0  0
  5 28  1  0  0  0  0
  6  9  1  0  0  0  0
  6 10  1  0  0  0  0
  6 24  1  0  0  0  0
  7 11  1  0  0  0  0
  7 12  1  0  0  0  0
  7 29  1  0  0  0  0
  8 13  1  0  0  0  0
  8 14  1  0  0  0  0
  8 30  1  0  0  0  0
  9 15  1  0  0  0  0
  9 31  1  0  0  0  0
  9 32  1  0  0  0  0
 10 16  1  0  0  0  0
 10 33  1  0  0  0  0
 10 34  1  0  0  0  0
 11 17  1  0  0  0  0
 11 35  1  0  0  0  0
 11 36  1  0  0  0  0
 12 18  1  0  0  0  0
 12 37  1  0  0  0  0
 12 38  1  0  0  0  0
 13 19  1  0  0  0  0
 13 39  1  0  0  0  0
 13 40  1  0  0  0  0
 14 20  1  0  0  0  0
 14 41  1  0  0  0  0
 14 42  1  0  0  0  0
 15 21  1  0  0  0  0
 15 43  1  0  0  0  0
 15 44  1  0  0  0  0
 16 21  1  0  0  0  0
 16 45  1  0  0  0  0
 16 46  1  0  0  0  0
 17 22  1  0  0  0  0
 17 47  1  0  0  0  0
 17 48  1  0  0  0  0
 18 22  1  0  0  0  0
 18 49  1  0  0  0  0
 18 50  1  0  0  0  0
 19 23  1  0  0  0  0
 19 51  1  0  0  0  0
 19 52  1  0  0  0  0
 20 23  1  0  0  0  0
 20 53  1  0  0  0  0
 20 54  1  0  0  0  0
 21 27  1  0  0  0  0
 21 55  1  0  0  0  0
 22 25  1  0  0  0  0
 22 56  1  0  0  0  0
 23 26  1  0  0  0  0
 23 57  1  0  0  0  0
 25 58  1  0  0  0  0
 25 59  1  0  0  0  0
 25 60  1  0  0  0  0
 26 61  1  0  0  0  0
 26 62  1  0  0  0  0
 26 63  1  0  0  0  0
M  END
> <PUBCHEM_COMPOUND_CID>
118520045

> <PUBCHEM_COMPOUND_CANONICALIZED>
1

> <PUBCHEM_CACTVS_COMPLEXITY>
497

> <PUBCHEM_CACTVS_HBOND_ACCEPTOR>
4

> <PUBCHEM_CACTVS_HBOND_DONOR>
2

> <PUBCHEM_CACTVS_ROTATABLE_BOND>
5

> <PUBCHEM_CACTVS_SUBSKEYS>
AAADcfB4OAAAAAAAAAAAAAAAAAAAAAAAAAAwYMAAAAAAAAAAAAAAGgAACAAADwCAgAACCAAAAgAIAACQCAAAAAAAAAAAAAEAAAAAABIAAAAAQAAEAAAAAAGIyPCPgAAAAAAAAACAAAAAAAAAAAAAAAAAAA==

> <PUBCHEM_IUPAC_OPENEYE_NAME>
1-[bis(4-methylcyclohexyl)methyl]cyclohexane-1,4-dicarboxylic acid

> <PUBCHEM_IUPAC_CAS_NAME>
1-[bis(4-methylcyclohexyl)methyl]cyclohexane-1,4-dicarboxylic acid

> <PUBCHEM_IUPAC_NAME_MARKUP>
1-[bis(4-methylcyclohexyl)methyl]cyclohexane-1,4-dicarboxylic acid

> <PUBCHEM_IUPAC_NAME>
1-[bis(4-methylcyclohexyl)methyl]cyclohexane-1,4-dicarboxylic acid

> <PUBCHEM_IUPAC_SYSTEMATIC_NAME>
1-[bis(4-methylcyclohexyl)methyl]cyclohexane-1,4-dicarboxylic acid

> <PUBCHEM_IUPAC_TRADITIONAL_NAME>
1-[bis(4-methylcyclohexyl)methyl]cyclohexane-1,4-dicarboxylic acid

> <PUBCHEM_IUPAC_INCHI>
InChI=1S/C23H38O4/c1-15-3-7-17(8-4-15)20(18-9-5-16(2)6-10-18)23(22(26)27)13-11-19(12-14-23)21(24)25/h15-20H,3-14H2,1-2H3,(H,24,25)(H,26,27)

> <PUBCHEM_IUPAC_INCHIKEY>
JZQWIZAMMTXHHQ-UHFFFAOYSA-N

> <PUBCHEM_XLOGP3_AA>
6.6

> <PUBCHEM_EXACT_MASS>
378.27700969

> <PUBCHEM_MOLECULAR_FORMULA>
C23H38O4

> <PUBCHEM_MOLECULAR_WEIGHT>
378.5

> <PUBCHEM_OPENEYE_CAN_SMILES>
CC1CCC(CC1)C(C2CCC(CC2)C)C3(CCC(CC3)C(=O)O)C(=O)O

> <PUBCHEM_OPENEYE_ISO_SMILES>
CC1CCC(CC1)C(C2CCC(CC2)C)C3(CCC(CC3)C(=O)O)C(=O)O

> <PUBCHEM_CACTVS_TPSA>
74.6

> <PUBCHEM_MONOISOTOPIC_WEIGHT>
378.27700969

> <PUBCHEM_TOTAL_CHARGE>
0

> <PUBCHEM_HEAVY_ATOM_COUNT>
27

> <PUBCHEM_ATOM_DEF_STEREO_COUNT>
0

> <PUBCHEM_ATOM_UDEF_STEREO_COUNT>
0

> <PUBCHEM_BOND_DEF_STEREO_COUNT>
0

> <PUBCHEM_BOND_UDEF_STEREO_COUNT>
0

> <PUBCHEM_ISOTOPIC_ATOM_COUNT>
0

> <PUBCHEM_COMPONENT_COUNT>
1

> <PUBCHEM_CACTVS_TAUTO_COUNT>
-1

> <PUBCHEM_COORDINATE_TYPE>
1
5
255

$$$$
