 
  -OEChem-10192103572D

 39 39  0     1  0  0  0  0  0999 V2000
    4.2690   -1.0950    0.0000 O   0  0  0  0  0  0  0  0  0  0  0  0
    2.5369   -3.0950    0.0000 O   0  0  0  0  0  0  0  0  0  0  0  0
    4.2690   -4.0950    0.0000 O   0  0  0  0  0  0  0  0  0  0  0  0
    6.0010   -3.0950    0.0000 O   0  0  0  0  0  0  0  0  0  0  0  0
    6.0010   -1.0950    0.0000 O   0  0  0  0  0  0  0  0  0  0  0  0
    2.5369   -0.0950    0.0000 O   0  0  0  0  0  0  0  0  0  0  0  0
    6.0010   -0.0950    0.0000 O   0  0  0  0  0  0  0  0  0  0  0  0
    7.7331    1.9050    0.0000 O   0  0  0  0  0  0  0  0  0  0  0  0
    3.4030   -2.5950    0.0000 C   0  0  1  0  0  0  0  0  0  0  0  0
    4.2690   -3.0950    0.0000 C   0  0  1  0  0  0  0  0  0  0  0  0
    3.4030   -1.5950    0.0000 C   0  0  1  0  0  0  0  0  0  0  0  0
    5.1350   -2.5950    0.0000 C   0  0  2  0  0  0  0  0  0  0  0  0
    5.1350   -1.5950    0.0000 C   0  0  3  0  0  0  0  0  0  0  0  0
    2.5369   -1.0950    0.0000 C   0  0  0  0  0  0  0  0  0  0  0  0
    6.8671    0.4050    0.0000 C   0  0  0  0  0  0  0  0  0  0  0  0
    6.8671    1.4050    0.0000 C   0  0  0  0  0  0  0  0  0  0  0  0
    7.7331    2.9050    0.0000 C   0  0  0  0  0  0  0  0  0  0  0  0
    8.5991    3.4050    0.0000 C   0  0  0  0  0  0  0  0  0  0  0  0
    8.5991    4.4050    0.0000 C   0  0  0  0  0  0  0  0  0  0  0  0
    3.4030   -3.2150    0.0000 H   0  0  0  0  0  0  0  0  0  0  0  0
    3.7320   -3.4050    0.0000 H   0  0  0  0  0  0  0  0  0  0  0  0
    3.4030   -0.9750    0.0000 H   0  0  0  0  0  0  0  0  0  0  0  0
    5.1350   -3.2150    0.0000 H   0  0  0  0  0  0  0  0  0  0  0  0
    5.1350   -0.9750    0.0000 H   0  0  0  0  0  0  0  0  0  0  0  0
    1.9264   -0.9873    0.0000 H   0  0  0  0  0  0  0  0  0  0  0  0
    2.3249   -1.6776    0.0000 H   0  0  0  0  0  0  0  0  0  0  0  0
    2.0000   -2.7850    0.0000 H   0  0  0  0  0  0  0  0  0  0  0  0
    3.7320   -4.4050    0.0000 H   0  0  0  0  0  0  0  0  0  0  0  0
    6.5380   -2.7850    0.0000 H   0  0  0  0  0  0  0  0  0  0  0  0
    2.0000    0.2150    0.0000 H   0  0  0  0  0  0  0  0  0  0  0  0
    7.0791   -0.1776    0.0000 H   0  0  0  0  0  0  0  0  0  0  0  0
    7.4776    0.5127    0.0000 H   0  0  0  0  0  0  0  0  0  0  0  0
    6.6550    1.9876    0.0000 H   0  0  0  0  0  0  0  0  0  0  0  0
    6.2565    1.2973    0.0000 H   0  0  0  0  0  0  0  0  0  0  0  0
    7.5210    3.4876    0.0000 H   0  0  0  0  0  0  0  0  0  0  0  0
    7.1225    2.7973    0.0000 H   0  0  0  0  0  0  0  0  0  0  0  0
    9.1360    3.0950    0.0000 H   0  0  0  0  0  0  0  0  0  0  0  0
    9.1360    4.7150    0.0000 H   0  0  0  0  0  0  0  0  0  0  0  0
    8.0622    4.7150    0.0000 H   0  0  0  0  0  0  0  0  0  0  0  0
  1 11  1  0  0  0  0
  1 13  1  0  0  0  0
  9  2  1  6  0  0  0
  2 27  1  0  0  0  0
 10  3  1  1  0  0  0
  3 28  1  0  0  0  0
 12  4  1  6  0  0  0
  4 29  1  0  0  0  0
  5  7  1  0  0  0  0
  5 13  1  0  0  0  0
  6 14  1  0  0  0  0
  6 30  1  0  0  0  0
  7 15  1  0  0  0  0
  8 16  1  0  0  0  0
  8 17  1  0  0  0  0
  9 10  1  0  0  0  0
  9 11  1  0  0  0  0
  9 20  1  0  0  0  0
 10 12  1  0  0  0  0
 10 21  1  0  0  0  0
 11 14  1  1  0  0  0
 11 22  1  0  0  0  0
 12 13  1  0  0  0  0
 12 23  1  0  0  0  0
 13 24  1  0  0  0  0
 14 25  1  0  0  0  0
 14 26  1  0  0  0  0
 15 16  1  0  0  0  0
 15 31  1  0  0  0  0
 15 32  1  0  0  0  0
 16 33  1  0  0  0  0
 16 34  1  0  0  0  0
 17 18  1  0  0  0  0
 17 35  1  0  0  0  0
 17 36  1  0  0  0  0
 18 19  2  0  0  0  0
 18 37  1  0  0  0  0
 19 38  1  0  0  0  0
 19 39  1  0  0  0  0
M  END
> <PUBCHEM_COMPOUND_CID>
118165839

> <PUBCHEM_COMPOUND_CANONICALIZED>
1

> <PUBCHEM_CACTVS_COMPLEXITY>
261

> <PUBCHEM_CACTVS_HBOND_ACCEPTOR>
8

> <PUBCHEM_CACTVS_HBOND_DONOR>
4

> <PUBCHEM_CACTVS_ROTATABLE_BOND>
8

> <PUBCHEM_CACTVS_SUBSKEYS>
AAADceBwPAAAAAAAAAAAAAAAAAAAAAAAAAAkAAAAAAAAAAAAAAAAGgAADAAACBSwgAMACAAABgCAACBCAAAAAAAAAAAIAAAAAAARFAIAIQACQAAFAAAHIAHAYAQAAAAAAAAAAAAAAAAAAAAAAAAAAAAAAA==

> <PUBCHEM_IUPAC_OPENEYE_NAME>
(3R,4S,5S,6R)-2-(2-allyloxyethylperoxy)-6-(hydroxymethyl)tetrahydropyran-3,4,5-triol

> <PUBCHEM_IUPAC_CAS_NAME>
(2R,3S,4S,5R)-2-(hydroxymethyl)-6-(2-prop-2-enoxyethyldioxy)oxane-3,4,5-triol

> <PUBCHEM_IUPAC_NAME_MARKUP>
(2<I>R</I>,3<I>S</I>,4<I>S</I>,5<I>R</I>)-2-(hydroxymethyl)-6-(2-prop-2-enoxyethylperoxy)oxane-3,4,5-triol

> <PUBCHEM_IUPAC_NAME>
(2R,3S,4S,5R)-2-(hydroxymethyl)-6-(2-prop-2-enoxyethylperoxy)oxane-3,4,5-triol

> <PUBCHEM_IUPAC_SYSTEMATIC_NAME>
(2R,3S,4S,5R)-2-(hydroxymethyl)-6-(2-prop-2-enoxyethylperoxy)oxane-3,4,5-triol

> <PUBCHEM_IUPAC_TRADITIONAL_NAME>
(3R,4S,5S,6R)-2-(2-allyloxyethylperoxy)-6-methylol-tetrahydropyran-3,4,5-triol

> <PUBCHEM_IUPAC_INCHI>
InChI=1S/C11H20O8/c1-2-3-16-4-5-17-19-11-10(15)9(14)8(13)7(6-12)18-11/h2,7-15H,1,3-6H2/t7-,8-,9+,10-,11?/m1/s1

> <PUBCHEM_IUPAC_INCHIKEY>
GSOLFIAVXRFETC-YBTJCZCISA-N

> <PUBCHEM_XLOGP3_AA>
-1.5

> <PUBCHEM_EXACT_MASS>
280.11581759

> <PUBCHEM_MOLECULAR_FORMULA>
C11H20O8

> <PUBCHEM_MOLECULAR_WEIGHT>
280.27

> <PUBCHEM_OPENEYE_CAN_SMILES>
C=CCOCCOOC1C(C(C(C(O1)CO)O)O)O

> <PUBCHEM_OPENEYE_ISO_SMILES>
C=CCOCCOOC1[C@@H]([C@H]([C@@H]([C@H](O1)CO)O)O)O

> <PUBCHEM_CACTVS_TPSA>
118

> <PUBCHEM_MONOISOTOPIC_WEIGHT>
280.11581759

> <PUBCHEM_TOTAL_CHARGE>
0

> <PUBCHEM_HEAVY_ATOM_COUNT>
19

> <PUBCHEM_ATOM_DEF_STEREO_COUNT>
4

> <PUBCHEM_ATOM_UDEF_STEREO_COUNT>
1

> <PUBCHEM_BOND_DEF_STEREO_COUNT>
0

> <PUBCHEM_BOND_UDEF_STEREO_COUNT>
0

> <PUBCHEM_ISOTOPIC_ATOM_COUNT>
0

> <PUBCHEM_COMPONENT_COUNT>
1

> <PUBCHEM_CACTVS_TAUTO_COUNT>
-1

> <PUBCHEM_COORDINATE_TYPE>
1
5
255

> <PUBCHEM_BONDANNOTATIONS>
11  14  5
9  2  6
10  3  5
12  4  6
13  5  3

$$$$
