 
  -OEChem-10192104182D

 81 86  0     1  0  0  0  0  0999 V2000
    6.1132    2.2878    0.0000 S   0  0  0  0  0  0  0  0  0  0  0  0
    7.4793   -0.7510    0.0000 S   0  0  0  0  0  0  0  0  0  0  0  0
    8.3733    1.0278    0.0000 O   0  0  0  0  0  0  0  0  0  0  0  0
    6.9793   -1.6171    0.0000 O   0  0  0  0  0  0  0  0  0  0  0  0
    7.9793    0.1150    0.0000 O   0  0  0  0  0  0  0  0  0  0  0  0
    9.2113    0.2490    0.0000 O   0  0  0  0  0  0  0  0  0  0  0  0
    4.0152   -5.7510    0.0000 O   0  0  0  0  0  0  0  0  0  0  0  0
    7.2943    4.0104    0.0000 N   0  0  0  0  0  0  0  0  0  0  0  0
    6.4808    5.8375    0.0000 N   0  0  0  0  0  0  0  0  0  0  0  0
    6.6132    0.7490    0.0000 N   0  0  0  0  0  0  0  0  0  0  0  0
    6.6132   -0.2510    0.0000 N   0  0  0  0  0  0  0  0  0  0  0  0
   10.0773   -1.2510    0.0000 N   0  0  0  0  0  0  0  0  0  0  0  0
    9.2113   -2.7510    0.0000 N   0  0  0  0  0  0  0  0  0  0  0  0
   11.0236   -2.5558    0.0000 N   0  0  0  0  0  0  0  0  0  0  0  0
    7.4793   -2.7510    0.0000 N   0  0  0  0  0  0  0  0  0  0  0  0
   11.6072   -1.7510    0.0000 N   0  0  0  0  0  0  0  0  0  0  0  0
    7.7010    3.0968    0.0000 C   0  0  0  0  0  0  0  0  0  0  0  0
    7.1132    2.2878    0.0000 C   0  0  3  0  0  0  0  0  0  0  0  0
    6.2998    4.1149    0.0000 C   0  0  0  0  0  0  0  0  0  0  0  0
    7.8821    4.8194    0.0000 C   0  0  0  0  0  0  0  0  0  0  0  0
    5.8930    5.0285    0.0000 C   0  0  0  0  0  0  0  0  0  0  0  0
    7.4753    5.7330    0.0000 C   0  0  0  0  0  0  0  0  0  0  0  0
    5.8042    1.3368    0.0000 C   0  0  3  0  0  0  0  0  0  0  0  0
    7.4223    1.3368    0.0000 C   0  0  0  0  0  0  0  0  0  0  0  0
    4.8532    1.0278    0.0000 C   0  0  0  0  0  0  0  0  0  0  0  0
    6.0741    6.7510    0.0000 C   0  0  0  0  0  0  0  0  0  0  0  0
    4.1100    1.6969    0.0000 C   0  0  0  0  0  0  0  0  0  0  0  0
    4.6453    0.0496    0.0000 C   0  0  0  0  0  0  0  0  0  0  0  0
    8.3453   -1.2510    0.0000 C   0  0  0  0  0  0  0  0  0  0  0  0
    3.1590    1.3879    0.0000 C   0  0  0  0  0  0  0  0  0  0  0  0
    3.6942   -0.2594    0.0000 C   0  0  0  0  0  0  0  0  0  0  0  0
    2.9511    0.4097    0.0000 C   0  0  0  0  0  0  0  0  0  0  0  0
    9.2113   -0.7510    0.0000 C   0  0  0  0  0  0  0  0  0  0  0  0
    8.3453   -2.2510    0.0000 C   0  0  0  0  0  0  0  0  0  0  0  0
    2.0000    0.1007    0.0000 C   0  0  0  0  0  0  0  0  0  0  0  0
   10.0773   -2.2510    0.0000 C   0  0  0  0  0  0  0  0  0  0  0  0
   11.0236   -0.9463    0.0000 C   0  0  0  0  0  0  0  0  0  0  0  0
   11.3342    0.0042    0.0000 C   0  0  0  0  0  0  0  0  0  0  0  0
    7.4793   -3.7510    0.0000 C   0  0  0  0  0  0  0  0  0  0  0  0
    6.6132   -4.2510    0.0000 C   0  0  0  0  0  0  0  0  0  0  0  0
    6.6132   -5.2510    0.0000 C   0  0  0  0  0  0  0  0  0  0  0  0
    5.7472   -3.7510    0.0000 C   0  0  0  0  0  0  0  0  0  0  0  0
    5.7472   -5.7510    0.0000 C   0  0  0  0  0  0  0  0  0  0  0  0
    4.8812   -4.2510    0.0000 C   0  0  0  0  0  0  0  0  0  0  0  0
    4.8812   -5.2510    0.0000 C   0  0  0  0  0  0  0  0  0  0  0  0
    4.0152   -6.7510    0.0000 C   0  0  0  0  0  0  0  0  0  0  0  0
    8.1317    2.6508    0.0000 H   0  0  0  0  0  0  0  0  0  0  0  0
    8.2150    3.4435    0.0000 H   0  0  0  0  0  0  0  0  0  0  0  0
    6.8318    2.8402    0.0000 H   0  0  0  0  0  0  0  0  0  0  0  0
    5.6982    3.9649    0.0000 H   0  0  0  0  0  0  0  0  0  0  0  0
    6.3430    3.4964    0.0000 H   0  0  0  0  0  0  0  0  0  0  0  0
    8.3128    4.3734    0.0000 H   0  0  0  0  0  0  0  0  0  0  0  0
    8.3961    5.1661    0.0000 H   0  0  0  0  0  0  0  0  0  0  0  0
    5.4623    5.4744    0.0000 H   0  0  0  0  0  0  0  0  0  0  0  0
    5.3790    4.6818    0.0000 H   0  0  0  0  0  0  0  0  0  0  0  0
    8.0769    5.8829    0.0000 H   0  0  0  0  0  0  0  0  0  0  0  0
    7.4321    6.3514    0.0000 H   0  0  0  0  0  0  0  0  0  0  0  0
    5.7072    0.7244    0.0000 H   0  0  0  0  0  0  0  0  0  0  0  0
    6.6405    7.0032    0.0000 H   0  0  0  0  0  0  0  0  0  0  0  0
    5.8219    7.3174    0.0000 H   0  0  0  0  0  0  0  0  0  0  0  0
    5.5077    6.4988    0.0000 H   0  0  0  0  0  0  0  0  0  0  0  0
    6.0763   -0.5610    0.0000 H   0  0  0  0  0  0  0  0  0  0  0  0
    4.2389    2.3033    0.0000 H   0  0  0  0  0  0  0  0  0  0  0  0
    5.1060   -0.3653    0.0000 H   0  0  0  0  0  0  0  0  0  0  0  0
    2.6982    1.8027    0.0000 H   0  0  0  0  0  0  0  0  0  0  0  0
    3.5653   -0.8659    0.0000 H   0  0  0  0  0  0  0  0  0  0  0  0
    1.8084    0.6904    0.0000 H   0  0  0  0  0  0  0  0  0  0  0  0
    1.4103   -0.0909    0.0000 H   0  0  0  0  0  0  0  0  0  0  0  0
    2.1916   -0.4890    0.0000 H   0  0  0  0  0  0  0  0  0  0  0  0
   11.2162   -3.1451    0.0000 H   0  0  0  0  0  0  0  0  0  0  0  0
   11.9235   -0.1884    0.0000 H   0  0  0  0  0  0  0  0  0  0  0  0
   11.5268    0.5936    0.0000 H   0  0  0  0  0  0  0  0  0  0  0  0
   10.7449    0.1968    0.0000 H   0  0  0  0  0  0  0  0  0  0  0  0
    8.0162   -4.0610    0.0000 H   0  0  0  0  0  0  0  0  0  0  0  0
    7.1502   -5.5610    0.0000 H   0  0  0  0  0  0  0  0  0  0  0  0
    5.7472   -3.1310    0.0000 H   0  0  0  0  0  0  0  0  0  0  0  0
    5.7472   -6.3710    0.0000 H   0  0  0  0  0  0  0  0  0  0  0  0
    4.3443   -3.9410    0.0000 H   0  0  0  0  0  0  0  0  0  0  0  0
    3.3952   -6.7510    0.0000 H   0  0  0  0  0  0  0  0  0  0  0  0
    4.0152   -7.3710    0.0000 H   0  0  0  0  0  0  0  0  0  0  0  0
    4.6352   -6.7510    0.0000 H   0  0  0  0  0  0  0  0  0  0  0  0
  1 18  1  0  0  0  0
  1 23  1  0  0  0  0
  2  4  2  0  0  0  0
  2  5  2  0  0  0  0
  2 11  1  0  0  0  0
  2 29  1  0  0  0  0
  3 24  2  0  0  0  0
  6 33  2  0  0  0  0
  7 45  1  0  0  0  0
  7 46  1  0  0  0  0
  8 17  1  0  0  0  0
  8 19  1  0  0  0  0
  8 20  1  0  0  0  0
  9 21  1  0  0  0  0
  9 22  1  0  0  0  0
  9 26  1  0  0  0  0
 10 11  1  0  0  0  0
 10 23  1  0  0  0  0
 10 24  1  0  0  0  0
 11 62  1  0  0  0  0
 12 33  1  0  0  0  0
 12 36  1  0  0  0  0
 12 37  1  0  0  0  0
 13 34  1  0  0  0  0
 13 36  2  0  0  0  0
 14 16  1  0  0  0  0
 14 36  1  0  0  0  0
 14 70  1  0  0  0  0
 15 34  1  0  0  0  0
 15 39  2  0  0  0  0
 16 37  2  0  0  0  0
 17 18  1  0  0  0  0
 17 47  1  0  0  0  0
 17 48  1  0  0  0  0
 18 24  1  0  0  0  0
 18 49  1  0  0  0  0
 19 21  1  0  0  0  0
 19 50  1  0  0  0  0
 19 51  1  0  0  0  0
 20 22  1  0  0  0  0
 20 52  1  0  0  0  0
 20 53  1  0  0  0  0
 21 54  1  0  0  0  0
 21 55  1  0  0  0  0
 22 56  1  0  0  0  0
 22 57  1  0  0  0  0
 23 25  1  0  0  0  0
 23 58  1  0  0  0  0
 25 27  2  0  0  0  0
 25 28  1  0  0  0  0
 26 59  1  0  0  0  0
 26 60  1  0  0  0  0
 26 61  1  0  0  0  0
 27 30  1  0  0  0  0
 27 63  1  0  0  0  0
 28 31  2  0  0  0  0
 28 64  1  0  0  0  0
 29 33  1  0  0  0  0
 29 34  2  0  0  0  0
 30 32  2  0  0  0  0
 30 65  1  0  0  0  0
 31 32  1  0  0  0  0
 31 66  1  0  0  0  0
 32 35  1  0  0  0  0
 35 67  1  0  0  0  0
 35 68  1  0  0  0  0
 35 69  1  0  0  0  0
 37 38  1  0  0  0  0
 38 71  1  0  0  0  0
 38 72  1  0  0  0  0
 38 73  1  0  0  0  0
 39 40  1  0  0  0  0
 39 74  1  0  0  0  0
 40 41  2  0  0  0  0
 40 42  1  0  0  0  0
 41 43  1  0  0  0  0
 41 75  1  0  0  0  0
 42 44  2  0  0  0  0
 42 76  1  0  0  0  0
 43 45  2  0  0  0  0
 43 77  1  0  0  0  0
 44 45  1  0  0  0  0
 44 78  1  0  0  0  0
 46 79  1  0  0  0  0
 46 80  1  0  0  0  0
 46 81  1  0  0  0  0
M  END
> <PUBCHEM_COMPOUND_CID>
45271775

> <PUBCHEM_COMPOUND_CANONICALIZED>
1

> <PUBCHEM_CACTVS_COMPLEXITY>
1400

> <PUBCHEM_CACTVS_HBOND_ACCEPTOR>
12

> <PUBCHEM_CACTVS_HBOND_DONOR>
2

> <PUBCHEM_CACTVS_ROTATABLE_BOND>
9

> <PUBCHEM_CACTVS_SUBSKEYS>
AAADcfB7+ABgAAAAAAAAAAAAAAAAAWIAAAA8YIEAAAAAAEABQAAAHgQYQAAADATF2AazBoNiBAqoAjNzdHDSCAFgIBAfqAE+DNiMZqqk+RuUMChkzxOoqEeQwAAOYAAAAAAAAADAAAAAAAAAAAAAAAAAAA==

> <PUBCHEM_IUPAC_OPENEYE_NAME>
7-[(E)-(4-methoxyphenyl)methyleneamino]-3-methyl-N-[5-[(4-methylpiperazin-1-yl)methyl]-4-oxo-2-(p-tolyl)thiazolidin-3-yl]-5-oxo-1H-[1,2,4]triazolo[4,3-a]pyrimidine-6-sulfonamide

> <PUBCHEM_IUPAC_CAS_NAME>
7-[(E)-(4-methoxyphenyl)methylideneamino]-3-methyl-N-[2-(4-methylphenyl)-5-[(4-methyl-1-piperazinyl)methyl]-4-oxo-3-thiazolidinyl]-5-oxo-1H-[1,2,4]triazolo[4,3-a]pyrimidine-6-sulfonamide

> <PUBCHEM_IUPAC_NAME_MARKUP>
7-[(<I>E</I>)-(4-methoxyphenyl)methylideneamino]-3-methyl-<I>N</I>-[2-(4-methylphenyl)-5-[(4-methylpiperazin-1-yl)methyl]-4-oxo-1,3-thiazolidin-3-yl]-5-oxo-1<I>H</I>-[1,2,4]triazolo[4,3-a]pyrimidine-6-sulfonamide

> <PUBCHEM_IUPAC_NAME>
7-[(E)-(4-methoxyphenyl)methylideneamino]-3-methyl-N-[2-(4-methylphenyl)-5-[(4-methylpiperazin-1-yl)methyl]-4-oxo-1,3-thiazolidin-3-yl]-5-oxo-1H-[1,2,4]triazolo[4,3-a]pyrimidine-6-sulfonamide

> <PUBCHEM_IUPAC_SYSTEMATIC_NAME>
7-[(E)-(4-methoxyphenyl)methylideneamino]-3-methyl-N-[2-(4-methylphenyl)-5-[(4-methylpiperazin-1-yl)methyl]-4-oxidanylidene-1,3-thiazolidin-3-yl]-5-oxidanylidene-1H-[1,2,4]triazolo[4,3-a]pyrimidine-6-sulfonamide

> <PUBCHEM_IUPAC_TRADITIONAL_NAME>
5-keto-N-[4-keto-5-[(4-methylpiperazino)methyl]-2-(p-tolyl)thiazolidin-3-yl]-3-methyl-7-[(E)-p-anisylideneamino]-1H-[1,2,4]triazolo[4,3-a]pyrimidine-6-sulfonamide

> <PUBCHEM_IUPAC_INCHI>
InChI=1S/C30H35N9O5S2/c1-19-5-9-22(10-6-19)29-39(27(40)24(45-29)18-37-15-13-36(3)14-16-37)35-46(42,43)25-26(31-17-21-7-11-23(44-4)12-8-21)32-30-34-33-20(2)38(30)28(25)41/h5-12,17,24,29,35H,13-16,18H2,1-4H3,(H,32,34)/b31-17+

> <PUBCHEM_IUPAC_INCHIKEY>
OWGIEPQOMFBLNZ-KBVAKVRCSA-N

> <PUBCHEM_XLOGP3_AA>
1.8

> <PUBCHEM_EXACT_MASS>
665.22025760

> <PUBCHEM_MOLECULAR_FORMULA>
C30H35N9O5S2

> <PUBCHEM_MOLECULAR_WEIGHT>
665.8

> <PUBCHEM_OPENEYE_CAN_SMILES>
CC1=CC=C(C=C1)C2N(C(=O)C(S2)CN3CCN(CC3)C)NS(=O)(=O)C4=C(N=C5NN=C(N5C4=O)C)N=CC6=CC=C(C=C6)OC

> <PUBCHEM_OPENEYE_ISO_SMILES>
CC1=CC=C(C=C1)C2N(C(=O)C(S2)CN3CCN(CC3)C)NS(=O)(=O)C4=C(N=C5NN=C(N5C4=O)C)/N=C/C6=CC=C(C=C6)OC

> <PUBCHEM_CACTVS_TPSA>
185

> <PUBCHEM_MONOISOTOPIC_WEIGHT>
665.22025760

> <PUBCHEM_TOTAL_CHARGE>
0

> <PUBCHEM_HEAVY_ATOM_COUNT>
46

> <PUBCHEM_ATOM_DEF_STEREO_COUNT>
0

> <PUBCHEM_ATOM_UDEF_STEREO_COUNT>
2

> <PUBCHEM_BOND_DEF_STEREO_COUNT>
1

> <PUBCHEM_BOND_UDEF_STEREO_COUNT>
0

> <PUBCHEM_ISOTOPIC_ATOM_COUNT>
0

> <PUBCHEM_COMPONENT_COUNT>
1

> <PUBCHEM_CACTVS_TAUTO_COUNT>
-1

> <PUBCHEM_COORDINATE_TYPE>
1
5
255

> <PUBCHEM_BONDANNOTATIONS>
12  33  8
12  36  8
12  37  8
13  34  8
13  36  8
14  16  8
14  36  8
16  37  8
18  17  3
23  25  3
25  27  8
25  28  8
27  30  8
28  31  8
29  33  8
29  34  8
30  32  8
31  32  8
40  41  8
40  42  8
41  43  8
42  44  8
43  45  8
44  45  8

$$$$
