 
  -OEChem-10192104232D

 80 86  0     1  0  0  0  0  0999 V2000
    7.1962   -1.5975    0.0000 O   0  0  0  0  0  0  0  0  0  0  0  0
    8.5230   -0.4842    0.0000 O   0  0  0  0  0  0  0  0  0  0  0  0
    7.1962   -4.5975    0.0000 O   0  0  0  0  0  0  0  0  0  0  0  0
    8.9561   -2.5629    0.0000 O   0  0  0  0  0  0  0  0  0  0  0  0
    8.5633    2.2057    0.0000 O   0  0  0  0  0  0  0  0  0  0  0  0
    5.4641   -2.5975    0.0000 O   0  0  0  0  0  0  0  0  0  0  0  0
    9.8622   -4.1183    0.0000 O   0  0  0  0  0  0  0  0  0  0  0  0
   10.2573    1.5966    0.0000 O   0  0  0  0  0  0  0  0  0  0  0  0
    6.5946    1.8139    0.0000 O   0  0  0  0  0  0  0  0  0  0  0  0
    5.9106   -0.0654    0.0000 O   0  0  0  0  0  0  0  0  0  0  0  0
    5.4641   -4.5975    0.0000 O   0  0  0  0  0  0  0  0  0  0  0  0
    7.1962   -2.5975    0.0000 C   0  0  1  0  0  0  0  0  0  0  0  0
    8.0622   -3.0975    0.0000 C   0  0  2  0  0  0  0  0  0  0  0  0
    8.0622   -4.0975    0.0000 C   0  0  1  0  0  0  0  0  0  0  0  0
    6.3301   -3.0975    0.0000 C   0  0  2  0  0  0  0  0  0  0  0  0
    8.2222    1.2216    0.0000 C   0  0  1  0  0  0  0  0  0  0  0  0
    7.5382   -0.6578    0.0000 C   0  0  2  0  0  0  0  0  0  0  0  0
    8.8650    0.4555    0.0000 C   0  0  1  0  0  0  0  0  0  0  0  0
    7.2374    1.0479    0.0000 C   0  0  1  0  0  0  0  0  0  0  0  0
    6.8954    0.1082    0.0000 C   0  0  1  0  0  0  0  0  0  0  0  0
    6.3301   -4.0975    0.0000 C   0  0  1  0  0  0  0  0  0  0  0  0
    8.9561   -4.6322    0.0000 C   0  0  0  0  0  0  0  0  0  0  0  0
    9.8935    0.6205    0.0000 C   0  0  0  0  0  0  0  0  0  0  0  0
    9.8622   -3.0767    0.0000 C   0  0  3  0  0  0  0  0  0  0  0  0
    9.5877    2.3945    0.0000 C   0  0  3  0  0  0  0  0  0  0  0  0
   10.8477   -3.2466    0.0000 C   0  0  0  0  0  0  0  0  0  0  0  0
    4.5981   -3.0975    0.0000 C   0  0  0  0  0  0  0  0  0  0  0  0
    9.9261    3.3355    0.0000 C   0  0  0  0  0  0  0  0  0  0  0  0
    3.7320   -2.5975    0.0000 C   0  0  0  0  0  0  0  0  0  0  0  0
   11.4875   -2.4780    0.0000 C   0  0  0  0  0  0  0  0  0  0  0  0
   11.1933   -4.1849    0.0000 C   0  0  0  0  0  0  0  0  0  0  0  0
   10.9102    3.5130    0.0000 C   0  0  0  0  0  0  0  0  0  0  0  0
    9.2804    4.0991    0.0000 C   0  0  0  0  0  0  0  0  0  0  0  0
   12.4730   -2.6479    0.0000 C   0  0  0  0  0  0  0  0  0  0  0  0
   12.1788   -4.3548    0.0000 C   0  0  0  0  0  0  0  0  0  0  0  0
    3.7320   -1.5975    0.0000 C   0  0  0  0  0  0  0  0  0  0  0  0
    2.8660   -3.0975    0.0000 C   0  0  0  0  0  0  0  0  0  0  0  0
   11.2486    4.4540    0.0000 C   0  0  0  0  0  0  0  0  0  0  0  0
    9.6188    5.0401    0.0000 C   0  0  0  0  0  0  0  0  0  0  0  0
   12.8186   -3.5863    0.0000 C   0  0  0  0  0  0  0  0  0  0  0  0
   10.6029    5.2175    0.0000 C   0  0  0  0  0  0  0  0  0  0  0  0
    2.8660   -1.0975    0.0000 C   0  0  0  0  0  0  0  0  0  0  0  0
    2.0000   -2.5975    0.0000 C   0  0  0  0  0  0  0  0  0  0  0  0
    2.0000   -1.5975    0.0000 C   0  0  0  0  0  0  0  0  0  0  0  0
    7.7331   -2.2875    0.0000 H   0  0  0  0  0  0  0  0  0  0  0  0
    8.8016   -3.5168    0.0000 H   0  0  0  0  0  0  0  0  0  0  0  0
    8.0556   -4.9475    0.0000 H   0  0  0  0  0  0  0  0  0  0  0  0
    6.3301   -2.4775    0.0000 H   0  0  0  0  0  0  0  0  0  0  0  0
    9.0581    1.3756    0.0000 H   0  0  0  0  0  0  0  0  0  0  0  0
    6.9276   -0.7655    0.0000 H   0  0  0  0  0  0  0  0  0  0  0  0
    9.4063   -0.1998    0.0000 H   0  0  0  0  0  0  0  0  0  0  0  0
    7.4495    1.6305    0.0000 H   0  0  0  0  0  0  0  0  0  0  0  0
    6.4969    0.5832    0.0000 H   0  0  0  0  0  0  0  0  0  0  0  0
    5.7932   -3.7875    0.0000 H   0  0  0  0  0  0  0  0  0  0  0  0
    8.5515   -5.1020    0.0000 H   0  0  0  0  0  0  0  0  0  0  0  0
    9.3497   -5.1112    0.0000 H   0  0  0  0  0  0  0  0  0  0  0  0
    9.8855    0.0006    0.0000 H   0  0  0  0  0  0  0  0  0  0  0  0
   10.5029    0.5066    0.0000 H   0  0  0  0  0  0  0  0  0  0  0  0
   10.0709   -2.4929    0.0000 H   0  0  0  0  0  0  0  0  0  0  0  0
   10.1981    2.5034    0.0000 H   0  0  0  0  0  0  0  0  0  0  0  0
    6.8067    2.3966    0.0000 H   0  0  0  0  0  0  0  0  0  0  0  0
    5.5120    0.4095    0.0000 H   0  0  0  0  0  0  0  0  0  0  0  0
    5.4641   -5.2175    0.0000 H   0  0  0  0  0  0  0  0  0  0  0  0
    4.1996   -3.5725    0.0000 H   0  0  0  0  0  0  0  0  0  0  0  0
    4.9966   -3.5725    0.0000 H   0  0  0  0  0  0  0  0  0  0  0  0
   11.2732   -1.8963    0.0000 H   0  0  0  0  0  0  0  0  0  0  0  0
   10.7966   -4.6614    0.0000 H   0  0  0  0  0  0  0  0  0  0  0  0
   11.3106    3.0396    0.0000 H   0  0  0  0  0  0  0  0  0  0  0  0
    8.6702    3.9891    0.0000 H   0  0  0  0  0  0  0  0  0  0  0  0
   12.8697   -2.1714    0.0000 H   0  0  0  0  0  0  0  0  0  0  0  0
   12.3931   -4.9366    0.0000 H   0  0  0  0  0  0  0  0  0  0  0  0
    4.2690   -1.2875    0.0000 H   0  0  0  0  0  0  0  0  0  0  0  0
    2.8660   -3.7175    0.0000 H   0  0  0  0  0  0  0  0  0  0  0  0
   11.8588    4.5640    0.0000 H   0  0  0  0  0  0  0  0  0  0  0  0
    9.2184    5.5135    0.0000 H   0  0  0  0  0  0  0  0  0  0  0  0
   13.4296   -3.6916    0.0000 H   0  0  0  0  0  0  0  0  0  0  0  0
   10.8127    5.8010    0.0000 H   0  0  0  0  0  0  0  0  0  0  0  0
    2.8660   -0.4775    0.0000 H   0  0  0  0  0  0  0  0  0  0  0  0
    1.4631   -2.9075    0.0000 H   0  0  0  0  0  0  0  0  0  0  0  0
    1.4631   -1.2875    0.0000 H   0  0  0  0  0  0  0  0  0  0  0  0
 12  1  1  1  0  0  0
 17  1  1  1  0  0  0
  2 17  1  0  0  0  0
  2 18  1  0  0  0  0
  3 14  1  0  0  0  0
  3 21  1  0  0  0  0
  4 13  1  0  0  0  0
  4 24  1  0  0  0  0
  5 16  1  0  0  0  0
  5 25  1  0  0  0  0
 15  6  1  6  0  0  0
  6 27  1  0  0  0  0
  7 22  1  0  0  0  0
  7 24  1  0  0  0  0
  8 23  1  0  0  0  0
  8 25  1  0  0  0  0
 19  9  1  1  0  0  0
  9 61  1  0  0  0  0
 20 10  1  6  0  0  0
 10 62  1  0  0  0  0
 21 11  1  1  0  0  0
 11 63  1  0  0  0  0
 12 13  1  0  0  0  0
 12 15  1  0  0  0  0
 12 45  1  0  0  0  0
 13 14  1  0  0  0  0
 13 46  1  6  0  0  0
 14 22  1  0  0  0  0
 14 47  1  6  0  0  0
 15 21  1  0  0  0  0
 15 48  1  0  0  0  0
 16 18  1  0  0  0  0
 16 19  1  0  0  0  0
 16 49  1  6  0  0  0
 17 20  1  0  0  0  0
 17 50  1  0  0  0  0
 18 23  1  0  0  0  0
 18 51  1  6  0  0  0
 19 20  1  0  0  0  0
 19 52  1  0  0  0  0
 20 53  1  0  0  0  0
 21 54  1  0  0  0  0
 22 55  1  0  0  0  0
 22 56  1  0  0  0  0
 23 57  1  0  0  0  0
 23 58  1  0  0  0  0
 24 26  1  0  0  0  0
 24 59  1  0  0  0  0
 25 28  1  0  0  0  0
 25 60  1  0  0  0  0
 26 30  2  0  0  0  0
 26 31  1  0  0  0  0
 27 29  1  0  0  0  0
 27 64  1  0  0  0  0
 27 65  1  0  0  0  0
 28 32  2  0  0  0  0
 28 33  1  0  0  0  0
 29 36  2  0  0  0  0
 29 37  1  0  0  0  0
 30 34  1  0  0  0  0
 30 66  1  0  0  0  0
 31 35  2  0  0  0  0
 31 67  1  0  0  0  0
 32 38  1  0  0  0  0
 32 68  1  0  0  0  0
 33 39  2  0  0  0  0
 33 69  1  0  0  0  0
 34 40  2  0  0  0  0
 34 70  1  0  0  0  0
 35 40  1  0  0  0  0
 35 71  1  0  0  0  0
 36 42  1  0  0  0  0
 36 72  1  0  0  0  0
 37 43  2  0  0  0  0
 37 73  1  0  0  0  0
 38 41  2  0  0  0  0
 38 74  1  0  0  0  0
 39 41  1  0  0  0  0
 39 75  1  0  0  0  0
 40 76  1  0  0  0  0
 41 77  1  0  0  0  0
 42 44  2  0  0  0  0
 42 78  1  0  0  0  0
 43 44  1  0  0  0  0
 43 79  1  0  0  0  0
 44 80  1  0  0  0  0
M  END
> <PUBCHEM_COMPOUND_CID>
123385157

> <PUBCHEM_COMPOUND_CANONICALIZED>
1

> <PUBCHEM_CACTVS_COMPLEXITY>
891

> <PUBCHEM_CACTVS_HBOND_ACCEPTOR>
11

> <PUBCHEM_CACTVS_HBOND_DONOR>
3

> <PUBCHEM_CACTVS_ROTATABLE_BOND>
7

> <PUBCHEM_CACTVS_SUBSKEYS>
AAADcfB8PAAAAAAAAAAAAAAAAAAAAAAAAAA0aNEiAAAAAACRUAAAGgAACAAADBSwmAMwCIAABgCAAiBCAAACAAAgAAAIiAAACIgZNiKAMRiicAAlwAEPqAfA4CwOAAAAAAAAAAAAAAAAAAAAAAAAAAAAAA==

> <PUBCHEM_IUPAC_OPENEYE_NAME>
(4aR,6S,7R,8R,8aR)-6-[[(4aR,6R,7R,8S,8aS)-7-benzyloxy-6-hydroxy-2-phenyl-4,4a,6,7,8,8a-hexahydropyrano[3,2-d][1,3]dioxin-8-yl]oxy]-2-phenyl-4,4a,6,7,8,8a-hexahydropyrano[3,2-d][1,3]dioxine-7,8-diol

> <PUBCHEM_IUPAC_CAS_NAME>
(4aR,6S,7R,8R,8aR)-6-[[(4aR,6R,7R,8S,8aS)-6-hydroxy-2-phenyl-7-phenylmethoxy-4,4a,6,7,8,8a-hexahydropyrano[3,2-d][1,3]dioxin-8-yl]oxy]-2-phenyl-4,4a,6,7,8,8a-hexahydropyrano[3,2-d][1,3]dioxin-7,8-diol

> <PUBCHEM_IUPAC_NAME_MARKUP>
(4<I>a</I><I>R</I>,6<I>S</I>,7<I>R</I>,8<I>R</I>,8<I>a</I><I>R</I>)-6-[[(4<I>a</I><I>R</I>,6<I>R</I>,7<I>R</I>,8<I>S</I>,8<I>a</I><I>S</I>)-6-hydroxy-2-phenyl-7-phenylmethoxy-4,4<I>a</I>,6,7,8,8<I>a</I>-hexahydropyrano[3,2-d][1,3]dioxin-8-yl]oxy]-2-phenyl-4,4<I>a</I>,6,7,8,8<I>a</I>-hexahydropyrano[3,2-d][1,3]dioxine-7,8-diol

> <PUBCHEM_IUPAC_NAME>
(4aR,6S,7R,8R,8aR)-6-[[(4aR,6R,7R,8S,8aS)-6-hydroxy-2-phenyl-7-phenylmethoxy-4,4a,6,7,8,8a-hexahydropyrano[3,2-d][1,3]dioxin-8-yl]oxy]-2-phenyl-4,4a,6,7,8,8a-hexahydropyrano[3,2-d][1,3]dioxine-7,8-diol

> <PUBCHEM_IUPAC_SYSTEMATIC_NAME>
(4aR,6S,7R,8R,8aR)-6-[[(4aR,6R,7R,8S,8aS)-6-oxidanyl-2-phenyl-7-phenylmethoxy-4,4a,6,7,8,8a-hexahydropyrano[3,2-d][1,3]dioxin-8-yl]oxy]-2-phenyl-4,4a,6,7,8,8a-hexahydropyrano[3,2-d][1,3]dioxine-7,8-diol

> <PUBCHEM_IUPAC_TRADITIONAL_NAME>
(4aR,6S,7R,8R,8aR)-6-[[(4aR,6R,7R,8S,8aS)-7-benzoxy-6-hydroxy-2-phenyl-4,4a,6,7,8,8a-hexahydropyrano[3,2-d][1,3]dioxin-8-yl]oxy]-2-phenyl-4,4a,6,7,8,8a-hexahydropyrano[3,2-d][1,3]dioxin-7,8-diol

> <PUBCHEM_IUPAC_INCHI>
InChI=1S/C33H36O11/c34-24-25(35)33(41-22-17-38-31(42-26(22)24)20-12-6-2-7-13-20)44-28-27-23(18-39-32(43-27)21-14-8-3-9-15-21)40-30(36)29(28)37-16-19-10-4-1-5-11-19/h1-15,22-36H,16-18H2/t22-,23-,24-,25-,26+,27+,28+,29-,30-,31?,32?,33+/m1/s1

> <PUBCHEM_IUPAC_INCHIKEY>
PRJSATNUNHWBSZ-DSHZFBAGSA-N

> <PUBCHEM_XLOGP3_AA>
1.7

> <PUBCHEM_EXACT_MASS>
608.22576196

> <PUBCHEM_MOLECULAR_FORMULA>
C33H36O11

> <PUBCHEM_MOLECULAR_WEIGHT>
608.6

> <PUBCHEM_OPENEYE_CAN_SMILES>
C1C2C(C(C(C(O2)O)OCC3=CC=CC=C3)OC4C(C(C5C(O4)COC(O5)C6=CC=CC=C6)O)O)OC(O1)C7=CC=CC=C7

> <PUBCHEM_OPENEYE_ISO_SMILES>
C1[C@@H]2[C@@H]([C@@H]([C@H]([C@@H](O2)O)OCC3=CC=CC=C3)O[C@H]4[C@@H]([C@H]([C@@H]5[C@H](O4)COC(O5)C6=CC=CC=C6)O)O)OC(O1)C7=CC=CC=C7

> <PUBCHEM_CACTVS_TPSA>
135

> <PUBCHEM_MONOISOTOPIC_WEIGHT>
608.22576196

> <PUBCHEM_TOTAL_CHARGE>
0

> <PUBCHEM_HEAVY_ATOM_COUNT>
44

> <PUBCHEM_ATOM_DEF_STEREO_COUNT>
10

> <PUBCHEM_ATOM_UDEF_STEREO_COUNT>
2

> <PUBCHEM_BOND_DEF_STEREO_COUNT>
0

> <PUBCHEM_BOND_UDEF_STEREO_COUNT>
0

> <PUBCHEM_ISOTOPIC_ATOM_COUNT>
0

> <PUBCHEM_COMPONENT_COUNT>
1

> <PUBCHEM_CACTVS_TAUTO_COUNT>
-1

> <PUBCHEM_COORDINATE_TYPE>
1
5
255

> <PUBCHEM_BONDANNOTATIONS>
12  1  5
17  1  5
20  10  6
21  11  5
13  46  6
14  47  6
16  49  6
18  51  6
24  26  3
25  28  3
26  30  8
26  31  8
28  32  8
28  33  8
29  36  8
29  37  8
30  34  8
31  35  8
32  38  8
33  39  8
34  40  8
35  40  8
36  42  8
37  43  8
38  41  8
39  41  8
42  44  8
43  44  8
15  6  6
19  9  5

$$$$
