 
  -OEChem-10192104042D

 86 90  0     1  0  0  0  0  0999 V2000
    6.8671   -0.8866    0.0000 O   0  0  0  0  0  0  0  0  0  0  0  0
    4.2690   -3.3866    0.0000 O   0  0  0  0  0  0  0  0  0  0  0  0
    6.0010   -3.3866    0.0000 O   0  0  0  0  0  0  0  0  0  0  0  0
    7.7331   -3.3866    0.0000 O   0  0  0  0  0  0  0  0  0  0  0  0
    7.7331    0.6134    0.0000 O   0  0  0  0  0  0  0  0  0  0  0  0
    9.4651   -2.3866    0.0000 O   0  0  0  0  0  0  0  0  0  0  0  0
    9.4651   -0.3866    0.0000 O   0  0  0  0  0  0  0  0  0  0  0  0
    6.0010   -5.3866    0.0000 O   0  0  0  0  0  0  0  0  0  0  0  0
    4.2690   -6.3866    0.0000 O   0  0  0  0  0  0  0  0  0  0  0  0
    2.5369   -5.3866    0.0000 O   0  0  0  0  0  0  0  0  0  0  0  0
    2.5369   -2.3866    0.0000 O   0  0  0  0  0  0  0  0  0  0  0  0
    6.0144    3.6650    0.0000 O   0  0  0  0  0  0  0  0  0  0  0  0
    5.9553   -0.4039    0.0000 O   0  0  0  0  0  0  0  0  0  0  0  0
    4.1934    0.6407    0.0000 O   0  0  0  0  0  0  0  0  0  0  0  0
    4.2328    2.6886    0.0000 O   0  0  0  0  0  0  0  0  0  0  0  0
    8.5950    2.1350    0.0000 O   0  0  0  0  0  0  0  0  0  0  0  0
    6.0161    5.6966    0.0000 O   0  0  0  0  0  0  0  0  0  0  0  0
    9.5559    5.6693    0.0000 O   0  0  0  0  0  0  0  0  0  0  0  0
    6.8671   -1.8866    0.0000 C   0  0  1  0  0  0  0  0  0  0  0  0
    7.7331   -2.3866    0.0000 C   0  0  2  0  0  0  0  0  0  0  0  0
    8.5991   -1.8866    0.0000 C   0  0  1  0  0  0  0  0  0  0  0  0
    8.5991   -0.8866    0.0000 C   0  0  2  0  0  0  0  0  0  0  0  0
    5.1350   -4.8866    0.0000 C   0  0  1  0  0  0  0  0  0  0  0  0
    5.1350   -3.8866    0.0000 C   0  0  1  0  0  0  0  0  0  0  0  0
    4.2690   -5.3866    0.0000 C   0  0  2  0  0  0  0  0  0  0  0  0
    3.4030   -4.8866    0.0000 C   0  0  1  0  0  0  0  0  0  0  0  0
    7.7331   -0.3866    0.0000 C   0  0  3  0  0  0  0  0  0  0  0  0
    3.4030   -3.8866    0.0000 C   0  0  1  0  0  0  0  0  0  0  0  0
    6.0010   -2.3866    0.0000 C   0  0  0  0  0  0  0  0  0  0  0  0
    2.5369   -3.3866    0.0000 C   0  0  0  0  0  0  0  0  0  0  0  0
    6.8671    1.1134    0.0000 C   0  0  0  0  0  0  0  0  0  0  0  0
    6.8630    2.1551    0.0000 C   0  0  0  0  0  0  0  0  0  0  0  0
    5.9630    0.5961    0.0000 C   0  0  0  0  0  0  0  0  0  0  0  0
    6.0029    2.6650    0.0000 C   0  0  0  0  0  0  0  0  0  0  0  0
    5.0670    1.1273    0.0000 C   0  0  0  0  0  0  0  0  0  0  0  0
    7.7348    2.6450    0.0000 C   0  0  0  0  0  0  0  0  0  0  0  0
    5.0871    2.1688    0.0000 C   0  0  0  0  0  0  0  0  0  0  0  0
    7.7464    3.6450    0.0000 C   0  0  0  0  0  0  0  0  0  0  0  0
    6.8862    4.1549    0.0000 C   0  0  0  0  0  0  0  0  0  0  0  0
    8.6622    4.1412    0.0000 C   0  0  0  0  0  0  0  0  0  0  0  0
    6.8822    5.1966    0.0000 C   0  0  0  0  0  0  0  0  0  0  0  0
    8.6822    5.1827    0.0000 C   0  0  0  0  0  0  0  0  0  0  0  0
    5.0854   -0.8972    0.0000 C   0  0  0  0  0  0  0  0  0  0  0  0
    7.7862    5.7139    0.0000 C   0  0  0  0  0  0  0  0  0  0  0  0
    3.3351    1.1540    0.0000 C   0  0  0  0  0  0  0  0  0  0  0  0
    3.3555    2.2088    0.0000 C   0  0  0  0  0  0  0  0  0  0  0  0
    6.0161    6.6966    0.0000 C   0  0  0  0  0  0  0  0  0  0  0  0
    9.5713    6.6692    0.0000 C   0  0  0  0  0  0  0  0  0  0  0  0
    6.3301   -1.5766    0.0000 H   0  0  0  0  0  0  0  0  0  0  0  0
    8.2700   -2.6966    0.0000 H   0  0  0  0  0  0  0  0  0  0  0  0
    9.1360   -1.5766    0.0000 H   0  0  0  0  0  0  0  0  0  0  0  0
    8.5991   -0.2666    0.0000 H   0  0  0  0  0  0  0  0  0  0  0  0
    5.1350   -5.5066    0.0000 H   0  0  0  0  0  0  0  0  0  0  0  0
    5.1350   -3.2666    0.0000 H   0  0  0  0  0  0  0  0  0  0  0  0
    3.7320   -5.6966    0.0000 H   0  0  0  0  0  0  0  0  0  0  0  0
    3.4030   -5.5066    0.0000 H   0  0  0  0  0  0  0  0  0  0  0  0
    7.1962   -0.0766    0.0000 H   0  0  0  0  0  0  0  0  0  0  0  0
    3.4030   -3.2666    0.0000 H   0  0  0  0  0  0  0  0  0  0  0  0
    5.7890   -1.8040    0.0000 H   0  0  0  0  0  0  0  0  0  0  0  0
    5.3905   -2.4942    0.0000 H   0  0  0  0  0  0  0  0  0  0  0  0
    1.9264   -3.2789    0.0000 H   0  0  0  0  0  0  0  0  0  0  0  0
    2.3249   -3.9692    0.0000 H   0  0  0  0  0  0  0  0  0  0  0  0
    8.2700   -3.6966    0.0000 H   0  0  0  0  0  0  0  0  0  0  0  0
   10.0021   -2.0766    0.0000 H   0  0  0  0  0  0  0  0  0  0  0  0
   10.0021   -0.6966    0.0000 H   0  0  0  0  0  0  0  0  0  0  0  0
    6.5380   -5.0766    0.0000 H   0  0  0  0  0  0  0  0  0  0  0  0
    3.7320   -6.6966    0.0000 H   0  0  0  0  0  0  0  0  0  0  0  0
    2.0000   -5.0766    0.0000 H   0  0  0  0  0  0  0  0  0  0  0  0
    2.0000   -2.0766    0.0000 H   0  0  0  0  0  0  0  0  0  0  0  0
    9.1918    3.8189    0.0000 H   0  0  0  0  0  0  0  0  0  0  0  0
    4.7796   -0.3579    0.0000 H   0  0  0  0  0  0  0  0  0  0  0  0
    4.5461   -1.2030    0.0000 H   0  0  0  0  0  0  0  0  0  0  0  0
    5.3913   -1.4365    0.0000 H   0  0  0  0  0  0  0  0  0  0  0  0
    7.7910    6.3339    0.0000 H   0  0  0  0  0  0  0  0  0  0  0  0
    3.6534    1.6861    0.0000 H   0  0  0  0  0  0  0  0  0  0  0  0
    2.8030    1.4723    0.0000 H   0  0  0  0  0  0  0  0  0  0  0  0
    3.0169    0.6219    0.0000 H   0  0  0  0  0  0  0  0  0  0  0  0
    3.0580    2.7528    0.0000 H   0  0  0  0  0  0  0  0  0  0  0  0
    2.8115    1.9113    0.0000 H   0  0  0  0  0  0  0  0  0  0  0  0
    3.6530    1.6648    0.0000 H   0  0  0  0  0  0  0  0  0  0  0  0
    6.6361    6.6966    0.0000 H   0  0  0  0  0  0  0  0  0  0  0  0
    6.0161    7.3166    0.0000 H   0  0  0  0  0  0  0  0  0  0  0  0
    5.3961    6.6966    0.0000 H   0  0  0  0  0  0  0  0  0  0  0  0
   10.1912    6.6596    0.0000 H   0  0  0  0  0  0  0  0  0  0  0  0
    9.5808    7.2891    0.0000 H   0  0  0  0  0  0  0  0  0  0  0  0
    8.9514    6.6787    0.0000 H   0  0  0  0  0  0  0  0  0  0  0  0
  1 19  1  0  0  0  0
  1 27  1  0  0  0  0
  2 24  1  0  0  0  0
  2 28  1  0  0  0  0
 24  3  1  1  0  0  0
  3 29  1  0  0  0  0
 20  4  1  6  0  0  0
  4 63  1  0  0  0  0
  5 27  1  0  0  0  0
  5 31  1  0  0  0  0
 21  6  1  1  0  0  0
  6 64  1  0  0  0  0
 22  7  1  6  0  0  0
  7 65  1  0  0  0  0
 23  8  1  6  0  0  0
  8 66  1  0  0  0  0
 25  9  1  1  0  0  0
  9 67  1  0  0  0  0
 26 10  1  6  0  0  0
 10 68  1  0  0  0  0
 11 30  1  0  0  0  0
 11 69  1  0  0  0  0
 12 34  1  0  0  0  0
 12 39  1  0  0  0  0
 13 33  1  0  0  0  0
 13 43  1  0  0  0  0
 14 35  1  0  0  0  0
 14 45  1  0  0  0  0
 15 37  1  0  0  0  0
 15 46  1  0  0  0  0
 16 36  2  0  0  0  0
 17 41  1  0  0  0  0
 17 47  1  0  0  0  0
 18 42  1  0  0  0  0
 18 48  1  0  0  0  0
 19 20  1  0  0  0  0
 19 29  1  1  0  0  0
 19 49  1  0  0  0  0
 20 21  1  0  0  0  0
 20 50  1  0  0  0  0
 21 22  1  0  0  0  0
 21 51  1  0  0  0  0
 22 27  1  0  0  0  0
 22 52  1  0  0  0  0
 23 24  1  0  0  0  0
 23 25  1  0  0  0  0
 23 53  1  0  0  0  0
 24 54  1  0  0  0  0
 25 26  1  0  0  0  0
 25 55  1  0  0  0  0
 26 28  1  0  0  0  0
 26 56  1  0  0  0  0
 27 57  1  0  0  0  0
 28 30  1  1  0  0  0
 28 58  1  0  0  0  0
 29 59  1  0  0  0  0
 29 60  1  0  0  0  0
 30 61  1  0  0  0  0
 30 62  1  0  0  0  0
 31 32  1  0  0  0  0
 31 33  2  0  0  0  0
 32 34  2  0  0  0  0
 32 36  1  0  0  0  0
 33 35  1  0  0  0  0
 34 37  1  0  0  0  0
 35 37  2  0  0  0  0
 36 38  1  0  0  0  0
 38 39  2  0  0  0  0
 38 40  1  0  0  0  0
 39 41  1  0  0  0  0
 40 42  2  0  0  0  0
 40 70  1  0  0  0  0
 41 44  2  0  0  0  0
 42 44  1  0  0  0  0
 43 71  1  0  0  0  0
 43 72  1  0  0  0  0
 43 73  1  0  0  0  0
 44 74  1  0  0  0  0
 45 75  1  0  0  0  0
 45 76  1  0  0  0  0
 45 77  1  0  0  0  0
 46 78  1  0  0  0  0
 46 79  1  0  0  0  0
 46 80  1  0  0  0  0
 47 81  1  0  0  0  0
 47 82  1  0  0  0  0
 47 83  1  0  0  0  0
 48 84  1  0  0  0  0
 48 85  1  0  0  0  0
 48 86  1  0  0  0  0
M  END
> <PUBCHEM_COMPOUND_CID>
101683330

> <PUBCHEM_COMPOUND_CANONICALIZED>
1

> <PUBCHEM_CACTVS_COMPLEXITY>
1050

> <PUBCHEM_CACTVS_HBOND_ACCEPTOR>
18

> <PUBCHEM_CACTVS_HBOND_DONOR>
7

> <PUBCHEM_CACTVS_ROTATABLE_BOND>
11

> <PUBCHEM_CACTVS_SUBSKEYS>
AAADcfB4PgAAAAAAAAAAAAAAAAAAAAAAAAA0aJECAAAAAACRQAAAGgAACAAADBSwmAMyDoAABgCIAqBSAAACCAAkIAAAiAEGiMgdNzaENRqieWKl4BUPqYfK7PzOIQABCAAIQABCAAIQABCAAAAAAAAAAA==

> <PUBCHEM_IUPAC_OPENEYE_NAME>
2,3,4,5,7-pentamethoxy-1-[(3R,4S,5S,6R)-3,4,5-trihydroxy-6-[[(2R,3R,4S,5S,6R)-3,4,5-trihydroxy-6-(hydroxymethyl)tetrahydropyran-2-yl]oxymethyl]tetrahydropyran-2-yl]oxy-xanthen-9-one

> <PUBCHEM_IUPAC_CAS_NAME>
2,3,4,5,7-pentamethoxy-1-[[(3R,4S,5S,6R)-3,4,5-trihydroxy-6-[[(2R,3R,4S,5S,6R)-3,4,5-trihydroxy-6-(hydroxymethyl)-2-oxanyl]oxymethyl]-2-oxanyl]oxy]-9-xanthenone

> <PUBCHEM_IUPAC_NAME_MARKUP>
2,3,4,5,7-pentamethoxy-1-[(3<I>R</I>,4<I>S</I>,5<I>S</I>,6<I>R</I>)-3,4,5-trihydroxy-6-[[(2<I>R</I>,3<I>R</I>,4<I>S</I>,5<I>S</I>,6<I>R</I>)-3,4,5-trihydroxy-6-(hydroxymethyl)oxan-2-yl]oxymethyl]oxan-2-yl]oxyxanthen-9-one

> <PUBCHEM_IUPAC_NAME>
2,3,4,5,7-pentamethoxy-1-[(3R,4S,5S,6R)-3,4,5-trihydroxy-6-[[(2R,3R,4S,5S,6R)-3,4,5-trihydroxy-6-(hydroxymethyl)oxan-2-yl]oxymethyl]oxan-2-yl]oxyxanthen-9-one

> <PUBCHEM_IUPAC_SYSTEMATIC_NAME>
1-[(3R,4S,5S,6R)-6-[[(2R,3R,4S,5S,6R)-6-(hydroxymethyl)-3,4,5-tris(oxidanyl)oxan-2-yl]oxymethyl]-3,4,5-tris(oxidanyl)oxan-2-yl]oxy-2,3,4,5,7-pentamethoxy-xanthen-9-one

> <PUBCHEM_IUPAC_TRADITIONAL_NAME>
2,3,4,5,7-pentamethoxy-1-[(3R,4S,5S,6R)-3,4,5-trihydroxy-6-[[(2R,3R,4S,5S,6R)-3,4,5-trihydroxy-6-methylol-tetrahydropyran-2-yl]oxymethyl]tetrahydropyran-2-yl]oxy-xanthone

> <PUBCHEM_IUPAC_INCHI>
InChI=1S/C30H38O18/c1-39-10-6-11-16(32)15-24(47-23(11)12(7-10)40-2)26(41-3)28(43-5)27(42-4)25(15)48-30-22(38)20(36)18(34)14(46-30)9-44-29-21(37)19(35)17(33)13(8-31)45-29/h6-7,13-14,17-22,29-31,33-38H,8-9H2,1-5H3/t13-,14-,17-,18-,19+,20+,21-,22-,29-,30?/m1/s1

> <PUBCHEM_IUPAC_INCHIKEY>
BVYJYSKSVDMXRE-CVBTZBMBSA-N

> <PUBCHEM_XLOGP3_AA>
-1.5

> <PUBCHEM_EXACT_MASS>
686.20581436

> <PUBCHEM_MOLECULAR_FORMULA>
C30H38O18

> <PUBCHEM_MOLECULAR_WEIGHT>
686.6

> <PUBCHEM_OPENEYE_CAN_SMILES>
COC1=CC2=C(C(=C1)OC)OC3=C(C2=O)C(=C(C(=C3OC)OC)OC)OC4C(C(C(C(O4)COC5C(C(C(C(O5)CO)O)O)O)O)O)O

> <PUBCHEM_OPENEYE_ISO_SMILES>
COC1=CC2=C(C(=C1)OC)OC3=C(C2=O)C(=C(C(=C3OC)OC)OC)OC4[C@@H]([C@H]([C@@H]([C@H](O4)CO[C@H]5[C@@H]([C@H]([C@@H]([C@H](O5)CO)O)O)O)O)O)O

> <PUBCHEM_CACTVS_TPSA>
251

> <PUBCHEM_MONOISOTOPIC_WEIGHT>
686.20581436

> <PUBCHEM_TOTAL_CHARGE>
0

> <PUBCHEM_HEAVY_ATOM_COUNT>
48

> <PUBCHEM_ATOM_DEF_STEREO_COUNT>
9

> <PUBCHEM_ATOM_UDEF_STEREO_COUNT>
1

> <PUBCHEM_BOND_DEF_STEREO_COUNT>
0

> <PUBCHEM_BOND_UDEF_STEREO_COUNT>
0

> <PUBCHEM_ISOTOPIC_ATOM_COUNT>
0

> <PUBCHEM_COMPONENT_COUNT>
1

> <PUBCHEM_CACTVS_TAUTO_COUNT>
-1

> <PUBCHEM_COORDINATE_TYPE>
1
5
255

> <PUBCHEM_BONDANNOTATIONS>
26  10  6
12  34  8
12  39  8
19  29  5
28  30  5
24  3  5
31  32  8
31  33  8
32  34  8
32  36  8
33  35  8
34  37  8
35  37  8
36  38  8
38  39  8
38  40  8
39  41  8
20  4  6
40  42  8
41  44  8
42  44  8
27  5  3
21  6  5
22  7  6
23  8  6
25  9  5

$$$$
