 
  -OEChem-10192104242D

 29 31  0     1  0  0  0  0  0999 V2000
    3.1886   -1.4520    0.0000 S   0  0  0  0  0  0  0  0  0  0  0  0
    6.7564    3.1632    0.0000 S   0  5  0  0  0  0  0  0  0  0  0  0
    6.4976    2.1973    0.0000 P   0  3  3  0  0  0  0  0  0  0  0  0
    4.7413   -0.5892    0.0000 O   0  0  0  0  0  0  0  0  0  0  0  0
    4.4644    1.8861    0.0000 O   0  0  0  0  0  0  0  0  0  0  0  0
    5.7610    3.1799    0.0000 O   0  0  0  0  0  0  0  0  0  0  0  0
    7.8966    1.6884    0.0000 O   0  0  0  0  0  0  0  0  0  0  0  0
    2.4452    0.5848    0.0000 O   0  0  0  0  0  0  0  0  0  0  0  0
    5.0178    0.3657    0.0000 C   0  0  1  0  0  0  0  0  0  0  0  0
    4.1887    0.9249    0.0000 C   0  0  1  0  0  0  0  0  0  0  0  0
    6.2388    1.2313    0.0000 C   0  0  1  0  0  0  0  0  0  0  0  0
    3.4070    0.3108    0.0000 C   0  0  2  0  0  0  0  0  0  0  0  0
    3.7478   -0.6230    0.0000 C   0  0  1  0  0  0  0  0  0  0  0  0
    7.6377    0.7225    0.0000 C   0  0  0  0  0  0  0  0  0  0  0  0
    3.6270   -2.3508    0.0000 C   0  0  0  0  0  0  0  0  0  0  0  0
    3.0678   -3.1799    0.0000 C   0  0  0  0  0  0  0  0  0  0  0  0
    5.7225   -0.1096    0.0000 H   0  0  0  0  0  0  0  0  0  0  0  0
    3.4840    1.4002    0.0000 H   0  0  0  0  0  0  0  0  0  0  0  0
    6.0188    0.4103    0.0000 H   0  0  0  0  0  0  0  0  0  0  0  0
    2.9847   -0.1432    0.0000 H   0  0  0  0  0  0  0  0  0  0  0  0
    3.1324   -0.5477    0.0000 H   0  0  0  0  0  0  0  0  0  0  0  0
    7.4428    0.1340    0.0000 H   0  0  0  0  0  0  0  0  0  0  0  0
    8.2317    0.5447    0.0000 H   0  0  0  0  0  0  0  0  0  0  0  0
    2.0000    0.1533    0.0000 H   0  0  0  0  0  0  0  0  0  0  0  0
    4.0729   -2.7815    0.0000 H   0  0  0  0  0  0  0  0  0  0  0  0
    4.1286   -1.9864    0.0000 H   0  0  0  0  0  0  0  0  0  0  0  0
    2.5538   -2.8332    0.0000 H   0  0  0  0  0  0  0  0  0  0  0  0
    2.7211   -3.6939    0.0000 H   0  0  0  0  0  0  0  0  0  0  0  0
    3.5818   -3.5266    0.0000 H   0  0  0  0  0  0  0  0  0  0  0  0
 13  1  1  6  0  0  0
  1 15  1  0  0  0  0
  2  3  1  0  0  0  0
  3  5  1  0  0  0  0
  3  6  1  0  0  0  0
  3  7  1  0  0  0  0
  4  9  1  0  0  0  0
  4 13  1  0  0  0  0
  5 10  1  0  0  0  0
  6 11  1  0  0  0  0
  7 14  1  0  0  0  0
 12  8  1  6  0  0  0
  8 24  1  0  0  0  0
  9 10  1  0  0  0  0
  9 11  1  0  0  0  0
  9 17  1  6  0  0  0
 10 12  1  0  0  0  0
 10 18  1  6  0  0  0
 11 14  1  0  0  0  0
 11 19  1  1  0  0  0
 12 13  1  0  0  0  0
 12 20  1  0  0  0  0
 13 21  1  0  0  0  0
 14 22  1  0  0  0  0
 14 23  1  0  0  0  0
 15 16  1  0  0  0  0
 15 25  1  0  0  0  0
 15 26  1  0  0  0  0
 16 27  1  0  0  0  0
 16 28  1  0  0  0  0
 16 29  1  0  0  0  0
M  CHG  2   2  -1   3   1
M  END
> <PUBCHEM_COMPOUND_CID>
101776333

> <PUBCHEM_COMPOUND_CANONICALIZED>
1

> <PUBCHEM_CACTVS_COMPLEXITY>
296

> <PUBCHEM_CACTVS_HBOND_ACCEPTOR>
7

> <PUBCHEM_CACTVS_HBOND_DONOR>
1

> <PUBCHEM_CACTVS_ROTATABLE_BOND>
2

> <PUBCHEM_CACTVS_SUBSKEYS>
AAADccBwOAJgAAAAAAAAAAAAAAAAASJAAAAkAAAABIAAAEgAAAAAGgQACCAACBSkwAKCAAAABxgAAAAAAAAAAAAAABAAAAAAAAABEAIgAAACQAAFAAAjAAHAYAQAAAAAAAAAAAAAAAAAAAAAAAAAAAAAAA==

> <PUBCHEM_IUPAC_OPENEYE_NAME>
(1R,2R,4R,5R,6R)-4-ethylsulfanyl-8-sulfido-3,7,9,11-tetraoxa-8-phosphoniatricyclo[6.2.1.02,6]undecan-5-ol

> <PUBCHEM_IUPAC_CAS_NAME>
(1R,2R,4R,5R,6R)-4-(ethylthio)-8-sulfido-3,7,9,11-tetraoxa-8-phosphoniatricyclo[6.2.1.02,6]undecan-5-ol

> <PUBCHEM_IUPAC_NAME_MARKUP>
(1<I>R</I>,2<I>R</I>,4<I>R</I>,5<I>R</I>,6<I>R</I>)-4-ethylsulfanyl-8-sulfido-3,7,9,11-tetraoxa-8-phosphoniatricyclo[6.2.1.0<SUP>2,6</SUP>]undecan-5-ol

> <PUBCHEM_IUPAC_NAME>
(1R,2R,4R,5R,6R)-4-ethylsulfanyl-8-sulfido-3,7,9,11-tetraoxa-8-phosphoniatricyclo[6.2.1.02,6]undecan-5-ol

> <PUBCHEM_IUPAC_SYSTEMATIC_NAME>
(1R,2R,4R,5R,6R)-4-ethylsulfanyl-8-sulfanidyl-3,7,9,11-tetraoxa-8-phosphoniatricyclo[6.2.1.02,6]undecan-5-ol

> <PUBCHEM_IUPAC_TRADITIONAL_NAME>
(1R,2R,4R,5R,6R)-4-(ethylthio)-8-sulfido-3,7,9,11-tetraoxa-8-phosphoniatricyclo[6.2.1.02,6]undecan-5-ol

> <PUBCHEM_IUPAC_INCHI>
InChI=1S/C8H13O5PS2/c1-2-16-8-5(9)7-6(11-8)4-3-10-14(15,12-4)13-7/h4-9H,2-3H2,1H3/t4-,5-,6-,7-,8-,14?/m1/s1

> <PUBCHEM_IUPAC_INCHIKEY>
HXMCMRGNSUNLMS-ISTLVRKWSA-N

> <PUBCHEM_XLOGP3_AA>
0.5

> <PUBCHEM_EXACT_MASS>
283.99420286

> <PUBCHEM_MOLECULAR_FORMULA>
C8H13O5PS2

> <PUBCHEM_MOLECULAR_WEIGHT>
284.3

> <PUBCHEM_OPENEYE_CAN_SMILES>
CCSC1C(C2C(O1)C3CO[P+](O3)(O2)[S-])O

> <PUBCHEM_OPENEYE_ISO_SMILES>
CCS[C@@H]1[C@@H]([C@@H]2[C@H](O1)[C@H]3CO[P+](O3)(O2)[S-])O

> <PUBCHEM_CACTVS_TPSA>
83.4

> <PUBCHEM_MONOISOTOPIC_WEIGHT>
283.99420286

> <PUBCHEM_TOTAL_CHARGE>
0

> <PUBCHEM_HEAVY_ATOM_COUNT>
16

> <PUBCHEM_ATOM_DEF_STEREO_COUNT>
5

> <PUBCHEM_ATOM_UDEF_STEREO_COUNT>
0

> <PUBCHEM_BOND_DEF_STEREO_COUNT>
0

> <PUBCHEM_BOND_UDEF_STEREO_COUNT>
0

> <PUBCHEM_ISOTOPIC_ATOM_COUNT>
0

> <PUBCHEM_COMPONENT_COUNT>
1

> <PUBCHEM_CACTVS_TAUTO_COUNT>
-1

> <PUBCHEM_COORDINATE_TYPE>
1
5
255

> <PUBCHEM_BONDANNOTATIONS>
13  1  6
10  18  6
11  19  5
12  8  6
9  17  6

$$$$
