 
  -OEChem-10192103282D

 58 58  0     1  0  0  0  0  0999 V2000
    7.1962    1.0000    0.0000 O   0  0  0  0  0  0  0  0  0  0  0  0
    5.4641   -1.0000    0.0000 O   0  0  0  0  0  0  0  0  0  0  0  0
    7.1962   -2.0000    0.0000 O   0  0  0  0  0  0  0  0  0  0  0  0
    8.9282   -1.0000    0.0000 O   0  0  0  0  0  0  0  0  0  0  0  0
    8.9282    1.0000    0.0000 O   0  0  0  0  0  0  0  0  0  0  0  0
    5.4641    2.0000    0.0000 O   0  0  0  0  0  0  0  0  0  0  0  0
    3.7320    1.0000    0.0000 O   0  0  0  0  0  0  0  0  0  0  0  0
    6.3301   -2.5000    0.0000 O   0  0  0  0  0  0  0  0  0  0  0  0
    8.9282   -2.0000    0.0000 O   0  0  0  0  0  0  0  0  0  0  0  0
    9.7942    0.5000    0.0000 O   0  0  0  0  0  0  0  0  0  0  0  0
    8.0622    2.5000    0.0000 O   0  0  0  0  0  0  0  0  0  0  0  0
    3.7320    2.0000    0.0000 O   0  0  0  0  0  0  0  0  0  0  0  0
    2.8660   -0.5000    0.0000 O   0  0  0  0  0  0  0  0  0  0  0  0
    6.3301   -0.5000    0.0000 C   0  0  3  0  0  0  0  0  0  0  0  0
    6.3301    0.5000    0.0000 C   0  0  3  0  0  0  0  0  0  0  0  0
    7.1962   -1.0000    0.0000 C   0  0  3  0  0  0  0  0  0  0  0  0
    8.0622   -0.5000    0.0000 C   0  0  3  0  0  0  0  0  0  0  0  0
    8.0622    0.5000    0.0000 C   0  0  3  0  0  0  0  0  0  0  0  0
    5.4641    1.0000    0.0000 C   0  0  3  0  0  0  0  0  0  0  0  0
    4.5981    0.5000    0.0000 C   0  0  0  0  0  0  0  0  0  0  0  0
    5.4641   -2.0000    0.0000 C   0  0  0  0  0  0  0  0  0  0  0  0
    8.0622   -2.5000    0.0000 C   0  0  0  0  0  0  0  0  0  0  0  0
    9.7942   -0.5000    0.0000 C   0  0  0  0  0  0  0  0  0  0  0  0
    8.9282    2.0000    0.0000 C   0  0  0  0  0  0  0  0  0  0  0  0
    4.5981    2.5000    0.0000 C   0  0  0  0  0  0  0  0  0  0  0  0
    4.5981   -2.5000    0.0000 C   0  0  0  0  0  0  0  0  0  0  0  0
    8.0622   -3.5000    0.0000 C   0  0  0  0  0  0  0  0  0  0  0  0
   10.6603   -1.0000    0.0000 C   0  0  0  0  0  0  0  0  0  0  0  0
    2.8660    0.5000    0.0000 C   0  0  0  0  0  0  0  0  0  0  0  0
    9.7942    2.5000    0.0000 C   0  0  0  0  0  0  0  0  0  0  0  0
    4.5981    3.5000    0.0000 C   0  0  0  0  0  0  0  0  0  0  0  0
    2.0000    1.0000    0.0000 C   0  0  0  0  0  0  0  0  0  0  0  0
    6.3301   -1.1200    0.0000 H   0  0  0  0  0  0  0  0  0  0  0  0
    6.8671    0.1900    0.0000 H   0  0  0  0  0  0  0  0  0  0  0  0
    6.6592   -1.3100    0.0000 H   0  0  0  0  0  0  0  0  0  0  0  0
    8.0622   -1.1200    0.0000 H   0  0  0  0  0  0  0  0  0  0  0  0
    8.0622    1.1200    0.0000 H   0  0  0  0  0  0  0  0  0  0  0  0
    6.0010    1.3100    0.0000 H   0  0  0  0  0  0  0  0  0  0  0  0
    4.1996    0.0251    0.0000 H   0  0  0  0  0  0  0  0  0  0  0  0
    4.9966    0.0251    0.0000 H   0  0  0  0  0  0  0  0  0  0  0  0
    4.2881   -1.9631    0.0000 H   0  0  0  0  0  0  0  0  0  0  0  0
    4.0611   -2.8100    0.0000 H   0  0  0  0  0  0  0  0  0  0  0  0
    4.9081   -3.0369    0.0000 H   0  0  0  0  0  0  0  0  0  0  0  0
    7.4422   -3.5000    0.0000 H   0  0  0  0  0  0  0  0  0  0  0  0
    8.0622   -4.1200    0.0000 H   0  0  0  0  0  0  0  0  0  0  0  0
    8.6822   -3.5000    0.0000 H   0  0  0  0  0  0  0  0  0  0  0  0
   10.3503   -1.5369    0.0000 H   0  0  0  0  0  0  0  0  0  0  0  0
   11.1972   -1.3100    0.0000 H   0  0  0  0  0  0  0  0  0  0  0  0
   10.9703   -0.4631    0.0000 H   0  0  0  0  0  0  0  0  0  0  0  0
   10.1042    1.9631    0.0000 H   0  0  0  0  0  0  0  0  0  0  0  0
   10.3312    2.8100    0.0000 H   0  0  0  0  0  0  0  0  0  0  0  0
    9.4842    3.0369    0.0000 H   0  0  0  0  0  0  0  0  0  0  0  0
    5.2181    3.5000    0.0000 H   0  0  0  0  0  0  0  0  0  0  0  0
    4.5981    4.1200    0.0000 H   0  0  0  0  0  0  0  0  0  0  0  0
    3.9781    3.5000    0.0000 H   0  0  0  0  0  0  0  0  0  0  0  0
    2.3100    1.5369    0.0000 H   0  0  0  0  0  0  0  0  0  0  0  0
    1.4631    1.3100    0.0000 H   0  0  0  0  0  0  0  0  0  0  0  0
    1.6900    0.4631    0.0000 H   0  0  0  0  0  0  0  0  0  0  0  0
  1 15  1  0  0  0  0
  1 18  1  0  0  0  0
  2 14  1  0  0  0  0
  2 21  1  0  0  0  0
  3 16  1  0  0  0  0
  3 22  1  0  0  0  0
  4 17  1  0  0  0  0
  4 23  1  0  0  0  0
  5 18  1  0  0  0  0
  5 24  1  0  0  0  0
  6 19  1  0  0  0  0
  6 25  1  0  0  0  0
  7 20  1  0  0  0  0
  7 29  1  0  0  0  0
  8 21  2  0  0  0  0
  9 22  2  0  0  0  0
 10 23  2  0  0  0  0
 11 24  2  0  0  0  0
 12 25  2  0  0  0  0
 13 29  2  0  0  0  0
 14 15  1  0  0  0  0
 14 16  1  0  0  0  0
 14 33  1  0  0  0  0
 15 19  1  0  0  0  0
 15 34  1  0  0  0  0
 16 17  1  0  0  0  0
 16 35  1  0  0  0  0
 17 18  1  0  0  0  0
 17 36  1  0  0  0  0
 18 37  1  0  0  0  0
 19 20  1  0  0  0  0
 19 38  1  0  0  0  0
 20 39  1  0  0  0  0
 20 40  1  0  0  0  0
 21 26  1  0  0  0  0
 22 27  1  0  0  0  0
 23 28  1  0  0  0  0
 24 30  1  0  0  0  0
 25 31  1  0  0  0  0
 26 41  1  0  0  0  0
 26 42  1  0  0  0  0
 26 43  1  0  0  0  0
 27 44  1  0  0  0  0
 27 45  1  0  0  0  0
 27 46  1  0  0  0  0
 28 47  1  0  0  0  0
 28 48  1  0  0  0  0
 28 49  1  0  0  0  0
 29 32  1  0  0  0  0
 30 50  1  0  0  0  0
 30 51  1  0  0  0  0
 30 52  1  0  0  0  0
 31 53  1  0  0  0  0
 31 54  1  0  0  0  0
 31 55  1  0  0  0  0
 32 56  1  0  0  0  0
 32 57  1  0  0  0  0
 32 58  1  0  0  0  0
M  END
> <PUBCHEM_COMPOUND_CID>
14236785

> <PUBCHEM_COMPOUND_CANONICALIZED>
1

> <PUBCHEM_CACTVS_COMPLEXITY>
746

> <PUBCHEM_CACTVS_HBOND_ACCEPTOR>
13

> <PUBCHEM_CACTVS_HBOND_DONOR>
0

> <PUBCHEM_CACTVS_ROTATABLE_BOND>
14

> <PUBCHEM_CACTVS_SUBSKEYS>
AAADceB4PAAAAAAAAAAAAAAAAAAAAAAAAAAkAAAAAAAAAAAAAAAAGgAAAAAACBSwgAMCCAAABAAIAACQCAAAAAAAAAAAAAAAAAARAAIAAAAiAAAFAAAGAAHA4CwAAAAAAAAAAAAAAAAAAAAAAAAAAAAAAA==

> <PUBCHEM_IUPAC_OPENEYE_NAME>
[2-acetoxy-2-(3,4,5,6-tetraacetoxytetrahydropyran-2-yl)ethyl] acetate

> <PUBCHEM_IUPAC_CAS_NAME>
acetic acid [2-acetyloxy-2-(3,4,5,6-tetraacetyloxy-2-oxanyl)ethyl] ester

> <PUBCHEM_IUPAC_NAME_MARKUP>
[2-acetyloxy-2-(3,4,5,6-tetraacetyloxyoxan-2-yl)ethyl] acetate

> <PUBCHEM_IUPAC_NAME>
[2-acetyloxy-2-(3,4,5,6-tetraacetyloxyoxan-2-yl)ethyl] acetate

> <PUBCHEM_IUPAC_SYSTEMATIC_NAME>
[2-acetyloxy-2-(3,4,5,6-tetraacetyloxyoxan-2-yl)ethyl] ethanoate

> <PUBCHEM_IUPAC_TRADITIONAL_NAME>
acetic acid [2-acetoxy-2-(3,4,5,6-tetraacetoxytetrahydropyran-2-yl)ethyl] ester

> <PUBCHEM_IUPAC_INCHI>
InChI=1S/C19H26O13/c1-8(20)26-7-14(27-9(2)21)15-16(28-10(3)22)17(29-11(4)23)18(30-12(5)24)19(32-15)31-13(6)25/h14-19H,7H2,1-6H3

> <PUBCHEM_IUPAC_INCHIKEY>
QZKAVUYSOOSMDY-UHFFFAOYSA-N

> <PUBCHEM_XLOGP3_AA>
-0.3

> <PUBCHEM_EXACT_MASS>
462.13734088

> <PUBCHEM_MOLECULAR_FORMULA>
C19H26O13

> <PUBCHEM_MOLECULAR_WEIGHT>
462.4

> <PUBCHEM_OPENEYE_CAN_SMILES>
CC(=O)OCC(C1C(C(C(C(O1)OC(=O)C)OC(=O)C)OC(=O)C)OC(=O)C)OC(=O)C

> <PUBCHEM_OPENEYE_ISO_SMILES>
CC(=O)OCC(C1C(C(C(C(O1)OC(=O)C)OC(=O)C)OC(=O)C)OC(=O)C)OC(=O)C

> <PUBCHEM_CACTVS_TPSA>
167

> <PUBCHEM_MONOISOTOPIC_WEIGHT>
462.13734088

> <PUBCHEM_TOTAL_CHARGE>
0

> <PUBCHEM_HEAVY_ATOM_COUNT>
32

> <PUBCHEM_ATOM_DEF_STEREO_COUNT>
0

> <PUBCHEM_ATOM_UDEF_STEREO_COUNT>
6

> <PUBCHEM_BOND_DEF_STEREO_COUNT>
0

> <PUBCHEM_BOND_UDEF_STEREO_COUNT>
0

> <PUBCHEM_ISOTOPIC_ATOM_COUNT>
0

> <PUBCHEM_COMPONENT_COUNT>
1

> <PUBCHEM_CACTVS_TAUTO_COUNT>
-1

> <PUBCHEM_COORDINATE_TYPE>
1
5
255

> <PUBCHEM_BONDANNOTATIONS>
15  1  3
19  20  3
14  2  3
16  3  3
17  4  3
18  5  3

$$$$
