 
  -OEChem-10192104452D

 56 57  0     1  0  0  0  0  0999 V2000
    8.1986   -0.2301    0.0000 O   0  0  0  0  0  0  0  0  0  0  0  0
    6.4666    0.7699    0.0000 O   0  0  0  0  0  0  0  0  0  0  0  0
    4.6870    0.8632    0.0000 O   0  0  0  0  0  0  0  0  0  0  0  0
    9.9307   -0.2301    0.0000 O   0  0  0  0  0  0  0  0  0  0  0  0
    6.4666   -2.2300    0.0000 O   0  0  0  0  0  0  0  0  0  0  0  0
    8.1986   -3.2300    0.0000 O   0  0  0  0  0  0  0  0  0  0  0  0
    9.9307   -2.2300    0.0000 O   0  0  0  0  0  0  0  0  0  0  0  0
    6.2392    2.9336    0.0000 O   0  0  0  0  0  0  0  0  0  0  0  0
    4.1111    3.3859    0.0000 O   0  0  0  0  0  0  0  0  0  0  0  0
    2.6166    0.5883    0.0000 O   0  0  0  0  0  0  0  0  0  0  0  0
    7.3326   -0.7301    0.0000 C   0  0  2  0  0  0  0  0  0  0  0  0
    7.3326   -1.7300    0.0000 C   0  0  1  0  0  0  0  0  0  0  0  0
    8.1986   -2.2300    0.0000 C   0  0  2  0  0  0  0  0  0  0  0  0
    9.0646   -1.7300    0.0000 C   0  0  1  0  0  0  0  0  0  0  0  0
    9.0646   -0.7301    0.0000 C   0  0  2  0  0  0  0  0  0  0  0  0
    5.6005    1.2700    0.0000 C   0  0  2  0  0  0  0  0  0  0  0  0
    5.4960    2.2645    0.0000 C   0  0  2  0  0  0  0  0  0  0  0  0
    4.5179    2.4724    0.0000 C   0  0  1  0  0  0  0  0  0  0  0  0
    6.4666   -0.2301    0.0000 C   0  0  0  0  0  0  0  0  0  0  0  0
    4.0179    1.6064    0.0000 C   0  0  1  0  0  0  0  0  0  0  0  0
    3.0233    1.5018    0.0000 C   0  0  0  0  0  0  0  0  0  0  0  0
    9.9307    0.7699    0.0000 C   0  0  0  0  0  0  0  0  0  0  0  0
   10.7967    1.2700    0.0000 C   0  0  2  0  0  0  0  0  0  0  0  0
   10.7967    2.2700    0.0000 C   0  0  0  0  0  0  0  0  0  0  0  0
   11.6627    0.7699    0.0000 C   0  0  0  0  0  0  0  0  0  0  0  0
   11.6627    2.7700    0.0000 C   0  0  0  0  0  0  0  0  0  0  0  0
    7.3326   -0.1101    0.0000 H   0  0  0  0  0  0  0  0  0  0  0  0
    6.7956   -1.4200    0.0000 H   0  0  0  0  0  0  0  0  0  0  0  0
    7.6617   -2.5400    0.0000 H   0  0  0  0  0  0  0  0  0  0  0  0
    9.0646   -2.3500    0.0000 H   0  0  0  0  0  0  0  0  0  0  0  0
    9.6016   -1.0400    0.0000 H   0  0  0  0  0  0  0  0  0  0  0  0
    5.5681    0.6508    0.0000 H   0  0  0  0  0  0  0  0  0  0  0  0
    6.0748    2.0423    0.0000 H   0  0  0  0  0  0  0  0  0  0  0  0
    4.9080    2.9542    0.0000 H   0  0  0  0  0  0  0  0  0  0  0  0
    5.8560   -0.1224    0.0000 H   0  0  0  0  0  0  0  0  0  0  0  0
    6.2545   -0.8127    0.0000 H   0  0  0  0  0  0  0  0  0  0  0  0
    3.7957    1.0275    0.0000 H   0  0  0  0  0  0  0  0  0  0  0  0
    3.0666    2.1203    0.0000 H   0  0  0  0  0  0  0  0  0  0  0  0
    2.4218    1.6518    0.0000 H   0  0  0  0  0  0  0  0  0  0  0  0
    9.7186    1.3526    0.0000 H   0  0  0  0  0  0  0  0  0  0  0  0
    9.3201    0.6623    0.0000 H   0  0  0  0  0  0  0  0  0  0  0  0
    5.9296   -1.9200    0.0000 H   0  0  0  0  0  0  0  0  0  0  0  0
    7.6617   -3.5400    0.0000 H   0  0  0  0  0  0  0  0  0  0  0  0
   11.3336    1.5800    0.0000 H   0  0  0  0  0  0  0  0  0  0  0  0
   10.4676   -1.9200    0.0000 H   0  0  0  0  0  0  0  0  0  0  0  0
    6.1102    3.5400    0.0000 H   0  0  0  0  0  0  0  0  0  0  0  0
    3.4945    3.4507    0.0000 H   0  0  0  0  0  0  0  0  0  0  0  0
   10.5846    2.8526    0.0000 H   0  0  0  0  0  0  0  0  0  0  0  0
   10.1861    2.1623    0.0000 H   0  0  0  0  0  0  0  0  0  0  0  0
   11.3527    0.2330    0.0000 H   0  0  0  0  0  0  0  0  0  0  0  0
   12.1997    0.4599    0.0000 H   0  0  0  0  0  0  0  0  0  0  0  0
   11.9727    1.3069    0.0000 H   0  0  0  0  0  0  0  0  0  0  0  0
    2.0000    0.5235    0.0000 H   0  0  0  0  0  0  0  0  0  0  0  0
   11.9727    2.2330    0.0000 H   0  0  0  0  0  0  0  0  0  0  0  0
   12.1997    3.0800    0.0000 H   0  0  0  0  0  0  0  0  0  0  0  0
   11.3527    3.3069    0.0000 H   0  0  0  0  0  0  0  0  0  0  0  0
  1 11  1  0  0  0  0
  1 15  1  0  0  0  0
 16  2  1  6  0  0  0
  2 19  1  0  0  0  0
  3 16  1  0  0  0  0
  3 20  1  0  0  0  0
 15  4  1  6  0  0  0
  4 22  1  0  0  0  0
 12  5  1  1  0  0  0
  5 42  1  0  0  0  0
 13  6  1  6  0  0  0
  6 43  1  0  0  0  0
 14  7  1  1  0  0  0
  7 45  1  0  0  0  0
 17  8  1  6  0  0  0
  8 46  1  0  0  0  0
 18  9  1  1  0  0  0
  9 47  1  0  0  0  0
 10 21  1  0  0  0  0
 10 53  1  0  0  0  0
 11 12  1  0  0  0  0
 11 19  1  6  0  0  0
 11 27  1  0  0  0  0
 12 13  1  0  0  0  0
 12 28  1  0  0  0  0
 13 14  1  0  0  0  0
 13 29  1  0  0  0  0
 14 15  1  0  0  0  0
 14 30  1  0  0  0  0
 15 31  1  0  0  0  0
 16 17  1  0  0  0  0
 16 32  1  0  0  0  0
 17 18  1  0  0  0  0
 17 33  1  0  0  0  0
 18 20  1  0  0  0  0
 18 34  1  0  0  0  0
 19 35  1  0  0  0  0
 19 36  1  0  0  0  0
 20 21  1  6  0  0  0
 20 37  1  0  0  0  0
 21 38  1  0  0  0  0
 21 39  1  0  0  0  0
 22 23  1  0  0  0  0
 22 40  1  0  0  0  0
 22 41  1  0  0  0  0
 23 24  1  0  0  0  0
 23 25  1  6  0  0  0
 23 44  1  0  0  0  0
 24 26  1  0  0  0  0
 24 48  1  0  0  0  0
 24 49  1  0  0  0  0
 25 50  1  0  0  0  0
 25 51  1  0  0  0  0
 25 52  1  0  0  0  0
 26 54  1  0  0  0  0
 26 55  1  0  0  0  0
 26 56  1  0  0  0  0
M  END
> <PUBCHEM_COMPOUND_CID>
125416295

> <PUBCHEM_COMPOUND_CANONICALIZED>
1

> <PUBCHEM_CACTVS_COMPLEXITY>
424

> <PUBCHEM_CACTVS_HBOND_ACCEPTOR>
10

> <PUBCHEM_CACTVS_HBOND_DONOR>
6

> <PUBCHEM_CACTVS_ROTATABLE_BOND>
8

> <PUBCHEM_CACTVS_SUBSKEYS>
AAADceB4PAAAAAAAAAAAAAAAAAAAASAAAAAkAAAAAAAAAAAAAAAAGgAACAAADRSwgAMCCAAABgAAAAAAAAAAAAAAAAAAAAAAAAAREAIAAAAiQAAFAAAHAAHAYAwIAAAAAAAAAAAAAAAAAAAAAAAAAAAAAA==

> <PUBCHEM_IUPAC_OPENEYE_NAME>
(2S,3R,4R,5S,6S)-2-[[(2R,3S,4S,5R)-3,4-dihydroxy-5-(hydroxymethyl)tetrahydrofuran-2-yl]oxymethyl]-6-[(2S)-2-methylbutoxy]tetrahydropyran-3,4,5-triol

> <PUBCHEM_IUPAC_CAS_NAME>
(2S,3R,4R,5S,6S)-2-[[(2R,3S,4S,5R)-3,4-dihydroxy-5-(hydroxymethyl)-2-oxolanyl]oxymethyl]-6-[(2S)-2-methylbutoxy]oxane-3,4,5-triol

> <PUBCHEM_IUPAC_NAME_MARKUP>
(2<I>S</I>,3<I>R</I>,4<I>R</I>,5<I>S</I>,6<I>S</I>)-2-[[(2<I>R</I>,3<I>S</I>,4<I>S</I>,5<I>R</I>)-3,4-dihydroxy-5-(hydroxymethyl)oxolan-2-yl]oxymethyl]-6-[(2<I>S</I>)-2-methylbutoxy]oxane-3,4,5-triol

> <PUBCHEM_IUPAC_NAME>
(2S,3R,4R,5S,6S)-2-[[(2R,3S,4S,5R)-3,4-dihydroxy-5-(hydroxymethyl)oxolan-2-yl]oxymethyl]-6-[(2S)-2-methylbutoxy]oxane-3,4,5-triol

> <PUBCHEM_IUPAC_SYSTEMATIC_NAME>
(2S,3R,4R,5S,6S)-2-[[(2R,3S,4S,5R)-5-(hydroxymethyl)-3,4-bis(oxidanyl)oxolan-2-yl]oxymethyl]-6-[(2S)-2-methylbutoxy]oxane-3,4,5-triol

> <PUBCHEM_IUPAC_TRADITIONAL_NAME>
(2S,3R,4R,5S,6S)-2-[[(2R,3S,4S,5R)-3,4-dihydroxy-5-methylol-tetrahydrofuran-2-yl]oxymethyl]-6-[(2S)-2-methylbutoxy]tetrahydropyran-3,4,5-triol

> <PUBCHEM_IUPAC_INCHI>
InChI=1S/C16H30O10/c1-3-7(2)5-23-16-14(22)12(20)11(19)9(26-16)6-24-15-13(21)10(18)8(4-17)25-15/h7-22H,3-6H2,1-2H3/t7-,8+,9-,10+,11-,12+,13-,14-,15+,16-/m0/s1

> <PUBCHEM_IUPAC_INCHIKEY>
QGZWEFZSPCYRKL-IPFMOZHVSA-N

> <PUBCHEM_XLOGP3_AA>
-1.9

> <PUBCHEM_EXACT_MASS>
382.18389715

> <PUBCHEM_MOLECULAR_FORMULA>
C16H30O10

> <PUBCHEM_MOLECULAR_WEIGHT>
382.40

> <PUBCHEM_OPENEYE_CAN_SMILES>
CCC(C)COC1C(C(C(C(O1)COC2C(C(C(O2)CO)O)O)O)O)O

> <PUBCHEM_OPENEYE_ISO_SMILES>
CC[C@H](C)CO[C@@H]1[C@H]([C@@H]([C@H]([C@@H](O1)CO[C@H]2[C@H]([C@@H]([C@H](O2)CO)O)O)O)O)O

> <PUBCHEM_CACTVS_TPSA>
158

> <PUBCHEM_MONOISOTOPIC_WEIGHT>
382.18389715

> <PUBCHEM_TOTAL_CHARGE>
0

> <PUBCHEM_HEAVY_ATOM_COUNT>
26

> <PUBCHEM_ATOM_DEF_STEREO_COUNT>
10

> <PUBCHEM_ATOM_UDEF_STEREO_COUNT>
0

> <PUBCHEM_BOND_DEF_STEREO_COUNT>
0

> <PUBCHEM_BOND_UDEF_STEREO_COUNT>
0

> <PUBCHEM_ISOTOPIC_ATOM_COUNT>
0

> <PUBCHEM_COMPONENT_COUNT>
1

> <PUBCHEM_CACTVS_TAUTO_COUNT>
-1

> <PUBCHEM_COORDINATE_TYPE>
1
5
255

> <PUBCHEM_BONDANNOTATIONS>
11  19  6
16  2  6
20  21  6
23  25  6
15  4  6
12  5  5
13  6  6
14  7  5
17  8  6
18  9  5

$$$$
