 
  -OEChem-10192103442D

 90 95  0     1  0  0  0  0  0999 V2000
    9.7932    0.2250    0.0000 P   0  3  3  0  0  0  0  0  0  0  0  0
    8.4576    2.8880    0.0000 O   0  0  0  0  0  0  0  0  0  0  0  0
   10.2831    1.0967    0.0000 O   0  0  0  0  0  0  0  0  0  0  0  0
    8.7932    0.2134    0.0000 O   0  0  0  0  0  0  0  0  0  0  0  0
   11.0138    3.2282    0.0000 O   0  0  0  0  0  0  0  0  0  0  0  0
    9.8047   -0.7750    0.0000 O   0  0  0  0  0  0  0  0  0  0  0  0
   10.6649   -0.2650    0.0000 O   0  5  0  0  0  0  0  0  0  0  0  0
    8.9561   -4.3542    0.0000 O   0  0  0  0  0  0  0  0  0  0  0  0
    5.4641   -2.3196    0.0000 O   0  0  0  0  0  0  0  0  0  0  0  0
    5.4641   -4.3195    0.0000 O   0  0  0  0  0  0  0  0  0  0  0  0
   10.7263   -4.3437    0.0000 O   0  0  0  0  0  0  0  0  0  0  0  0
    3.7320   -1.3196    0.0000 O   0  0  0  0  0  0  0  0  0  0  0  0
    4.5981   -6.8196    0.0000 O   0  0  0  0  0  0  0  0  0  0  0  0
    4.5981    0.1805    0.0000 O   0  0  0  0  0  0  0  0  0  0  0  0
    3.7320   -5.3195    0.0000 O   0  0  0  0  0  0  0  0  0  0  0  0
    9.2439    4.4808    0.0000 N   0  0  0  0  0  0  0  0  0  0  0  0
    8.7263    6.0047    0.0000 N   0  0  0  0  0  0  0  0  0  0  0  0
   11.0227    4.8788    0.0000 N   0  0  0  0  0  0  0  0  0  0  0  0
   11.3602    6.5776    0.0000 N   0  0  0  0  0  0  0  0  0  0  0  0
   10.0578    7.7194    0.0000 N   0  0  0  0  0  0  0  0  0  0  0  0
    9.7732    1.9569    0.0000 C   0  0  2  0  0  0  0  0  0  0  0  0
    8.7732    1.9453    0.0000 C   0  0  1  0  0  0  0  0  0  0  0  0
   10.0669    2.9066    0.0000 C   0  0  2  0  0  0  0  0  0  0  0  0
    9.2555    3.4808    0.0000 C   0  0  1  0  0  0  0  0  0  0  0  0
    8.2833    1.0736    0.0000 C   0  0  0  0  0  0  0  0  0  0  0  0
   10.0419    5.0736    0.0000 C   0  0  0  0  0  0  0  0  0  0  0  0
    8.4325    5.0550    0.0000 C   0  0  0  0  0  0  0  0  0  0  0  0
    9.7202    6.0205    0.0000 C   0  0  0  0  0  0  0  0  0  0  0  0
    8.9446   -1.2850    0.0000 C   0  0  0  0  0  0  0  0  0  0  0  0
   10.3794    6.7725    0.0000 C   0  0  0  0  0  0  0  0  0  0  0  0
    8.9561   -2.2849    0.0000 C   0  0  0  0  0  0  0  0  0  0  0  0
   11.6819    5.6307    0.0000 C   0  0  0  0  0  0  0  0  0  0  0  0
    8.0622   -2.8196    0.0000 C   0  0  0  0  0  0  0  0  0  0  0  0
    9.8622   -2.7987    0.0000 C   0  0  0  0  0  0  0  0  0  0  0  0
    8.0622   -3.8196    0.0000 C   0  0  0  0  0  0  0  0  0  0  0  0
    7.1962   -2.3196    0.0000 C   0  0  0  0  0  0  0  0  0  0  0  0
    9.8622   -3.8404    0.0000 C   0  0  0  0  0  0  0  0  0  0  0  0
    7.1962   -4.3195    0.0000 C   0  0  0  0  0  0  0  0  0  0  0  0
    6.3301   -2.8196    0.0000 C   0  0  0  0  0  0  0  0  0  0  0  0
    6.3301   -3.8196    0.0000 C   0  0  0  0  0  0  0  0  0  0  0  0
    2.8660   -0.8195    0.0000 C   0  0  0  0  0  0  0  0  0  0  0  0
    3.7320   -7.3196    0.0000 C   0  0  0  0  0  0  0  0  0  0  0  0
    5.4641   -1.3196    0.0000 C   0  0  0  0  0  0  0  0  0  0  0  0
    5.4641   -5.3195    0.0000 C   0  0  0  0  0  0  0  0  0  0  0  0
    4.5981   -0.8195    0.0000 C   0  0  0  0  0  0  0  0  0  0  0  0
    2.0000   -0.3195    0.0000 C   0  0  0  0  0  0  0  0  0  0  0  0
    2.3660   -1.6856    0.0000 C   0  0  0  0  0  0  0  0  0  0  0  0
    3.3660    0.0465    0.0000 C   0  0  0  0  0  0  0  0  0  0  0  0
    2.8660   -7.8196    0.0000 C   0  0  0  0  0  0  0  0  0  0  0  0
    4.2320   -8.1856    0.0000 C   0  0  0  0  0  0  0  0  0  0  0  0
    3.2320   -6.4535    0.0000 C   0  0  0  0  0  0  0  0  0  0  0  0
    4.5981   -5.8195    0.0000 C   0  0  0  0  0  0  0  0  0  0  0  0
   10.6173    2.0566    0.0000 H   0  0  0  0  0  0  0  0  0  0  0  0
    7.9270    2.0255    0.0000 H   0  0  0  0  0  0  0  0  0  0  0  0
   10.5113    2.4742    0.0000 H   0  0  0  0  0  0  0  0  0  0  0  0
    8.7000    3.7562    0.0000 H   0  0  0  0  0  0  0  0  0  0  0  0
    7.8037    1.4666    0.0000 H   0  0  0  0  0  0  0  0  0  0  0  0
    7.8130    0.6696    0.0000 H   0  0  0  0  0  0  0  0  0  0  0  0
   11.4800    2.8195    0.0000 H   0  0  0  0  0  0  0  0  0  0  0  0
    7.8454    4.8556    0.0000 H   0  0  0  0  0  0  0  0  0  0  0  0
    8.7258   -0.7048    0.0000 H   0  0  0  0  0  0  0  0  0  0  0  0
    8.3353   -1.3997    0.0000 H   0  0  0  0  0  0  0  0  0  0  0  0
   12.2900    5.5099    0.0000 H   0  0  0  0  0  0  0  0  0  0  0  0
   10.4665    8.1856    0.0000 H   0  0  0  0  0  0  0  0  0  0  0  0
    9.4497    7.8402    0.0000 H   0  0  0  0  0  0  0  0  0  0  0  0
   10.3979   -2.4867    0.0000 H   0  0  0  0  0  0  0  0  0  0  0  0
    7.1962   -1.6996    0.0000 H   0  0  0  0  0  0  0  0  0  0  0  0
    7.1962   -4.9396    0.0000 H   0  0  0  0  0  0  0  0  0  0  0  0
    6.0747   -1.4272    0.0000 H   0  0  0  0  0  0  0  0  0  0  0  0
    5.6762   -0.7369    0.0000 H   0  0  0  0  0  0  0  0  0  0  0  0
    5.6762   -5.9022    0.0000 H   0  0  0  0  0  0  0  0  0  0  0  0
    6.0747   -5.2119    0.0000 H   0  0  0  0  0  0  0  0  0  0  0  0
    2.3100    0.2174    0.0000 H   0  0  0  0  0  0  0  0  0  0  0  0
    1.4631   -0.0095    0.0000 H   0  0  0  0  0  0  0  0  0  0  0  0
    1.6900   -0.8565    0.0000 H   0  0  0  0  0  0  0  0  0  0  0  0
    1.8291   -1.3756    0.0000 H   0  0  0  0  0  0  0  0  0  0  0  0
    2.0560   -2.2225    0.0000 H   0  0  0  0  0  0  0  0  0  0  0  0
    2.9030   -1.9956    0.0000 H   0  0  0  0  0  0  0  0  0  0  0  0
    3.9030   -0.2635    0.0000 H   0  0  0  0  0  0  0  0  0  0  0  0
    3.6760    0.5834    0.0000 H   0  0  0  0  0  0  0  0  0  0  0  0
    2.8291    0.3565    0.0000 H   0  0  0  0  0  0  0  0  0  0  0  0
    2.5560   -7.2826    0.0000 H   0  0  0  0  0  0  0  0  0  0  0  0
    2.3291   -8.1296    0.0000 H   0  0  0  0  0  0  0  0  0  0  0  0
    3.1760   -8.3565    0.0000 H   0  0  0  0  0  0  0  0  0  0  0  0
    3.6951   -8.4956    0.0000 H   0  0  0  0  0  0  0  0  0  0  0  0
    4.5420   -8.7225    0.0000 H   0  0  0  0  0  0  0  0  0  0  0  0
    4.7690   -7.8756    0.0000 H   0  0  0  0  0  0  0  0  0  0  0  0
    3.7690   -6.1435    0.0000 H   0  0  0  0  0  0  0  0  0  0  0  0
    2.9220   -5.9166    0.0000 H   0  0  0  0  0  0  0  0  0  0  0  0
    2.6951   -6.7635    0.0000 H   0  0  0  0  0  0  0  0  0  0  0  0
  1  3  1  0  0  0  0
  1  4  1  0  0  0  0
  1  6  1  0  0  0  0
  1  7  1  0  0  0  0
  2 22  1  0  0  0  0
  2 24  1  0  0  0  0
  3 21  1  0  0  0  0
  4 25  1  0  0  0  0
 23  5  1  6  0  0  0
  5 59  1  0  0  0  0
  6 29  1  0  0  0  0
  8 35  1  0  0  0  0
  8 37  1  0  0  0  0
  9 39  1  0  0  0  0
  9 43  1  0  0  0  0
 10 40  1  0  0  0  0
 10 44  1  0  0  0  0
 11 37  2  0  0  0  0
 12 41  1  0  0  0  0
 12 45  1  0  0  0  0
 13 42  1  0  0  0  0
 13 52  1  0  0  0  0
 14 45  2  0  0  0  0
 15 52  2  0  0  0  0
 24 16  1  1  0  0  0
 16 26  1  0  0  0  0
 16 27  1  0  0  0  0
 17 27  2  0  0  0  0
 17 28  1  0  0  0  0
 18 26  2  0  0  0  0
 18 32  1  0  0  0  0
 19 30  1  0  0  0  0
 19 32  2  0  0  0  0
 20 30  1  0  0  0  0
 20 64  1  0  0  0  0
 20 65  1  0  0  0  0
 21 22  1  0  0  0  0
 21 23  1  0  0  0  0
 21 53  1  1  0  0  0
 22 25  1  0  0  0  0
 22 54  1  6  0  0  0
 23 24  1  0  0  0  0
 23 55  1  0  0  0  0
 24 56  1  0  0  0  0
 25 57  1  0  0  0  0
 25 58  1  0  0  0  0
 26 28  1  0  0  0  0
 27 60  1  0  0  0  0
 28 30  2  0  0  0  0
 29 31  1  0  0  0  0
 29 61  1  0  0  0  0
 29 62  1  0  0  0  0
 31 33  1  0  0  0  0
 31 34  2  0  0  0  0
 32 63  1  0  0  0  0
 33 35  1  0  0  0  0
 33 36  2  0  0  0  0
 34 37  1  0  0  0  0
 34 66  1  0  0  0  0
 35 38  2  0  0  0  0
 36 39  1  0  0  0  0
 36 67  1  0  0  0  0
 38 40  1  0  0  0  0
 38 68  1  0  0  0  0
 39 40  2  0  0  0  0
 41 46  1  0  0  0  0
 41 47  1  0  0  0  0
 41 48  1  0  0  0  0
 42 49  1  0  0  0  0
 42 50  1  0  0  0  0
 42 51  1  0  0  0  0
 43 45  1  0  0  0  0
 43 69  1  0  0  0  0
 43 70  1  0  0  0  0
 44 52  1  0  0  0  0
 44 71  1  0  0  0  0
 44 72  1  0  0  0  0
 46 73  1  0  0  0  0
 46 74  1  0  0  0  0
 46 75  1  0  0  0  0
 47 76  1  0  0  0  0
 47 77  1  0  0  0  0
 47 78  1  0  0  0  0
 48 79  1  0  0  0  0
 48 80  1  0  0  0  0
 48 81  1  0  0  0  0
 49 82  1  0  0  0  0
 49 83  1  0  0  0  0
 49 84  1  0  0  0  0
 50 85  1  0  0  0  0
 50 86  1  0  0  0  0
 50 87  1  0  0  0  0
 51 88  1  0  0  0  0
 51 89  1  0  0  0  0
 51 90  1  0  0  0  0
M  CHG  2   1   1   7  -1
M  END
> <PUBCHEM_COMPOUND_CID>
101720169

> <PUBCHEM_COMPOUND_CANONICALIZED>
1

> <PUBCHEM_CACTVS_COMPLEXITY>
1360

> <PUBCHEM_CACTVS_HBOND_ACCEPTOR>
18

> <PUBCHEM_CACTVS_HBOND_DONOR>
2

> <PUBCHEM_CACTVS_ROTATABLE_BOND>
14

> <PUBCHEM_CACTVS_SUBSKEYS>
AAADcfB/vAIAAAAAAAAAAAAAAAAAAWJAAAA8SIEAAAAAAFiB/AAAHgAQCCAADFzhnwY3/r9MFxCoAybzbAKCiC0xMKAB2CBu3NiPfyLE+V6efiqvwBfbqSfw8L4OIQABCAAIQABCAAIQABCAAAAAAAAAAA==

> <PUBCHEM_IUPAC_OPENEYE_NAME>
tert-butyl 2-[4-[[(4aR,6R,7R,7aS)-6-(6-aminopurin-9-yl)-7-hydroxy-2-oxido-4a,6,7,7a-tetrahydro-4H-furo[3,2-d][1,3,2]dioxaphosphinin-2-ium-2-yl]oxymethyl]-7-(2-tert-butoxy-2-oxo-ethoxy)-2-oxo-chromen-6-yl]oxyacetate

> <PUBCHEM_IUPAC_CAS_NAME>
2-[[4-[[(4aR,6R,7R,7aS)-6-(6-aminopurin-9-yl)-7-hydroxy-2-oxido-4a,6,7,7a-tetrahydro-4H-furo[3,2-d][1,3,2]dioxaphosphorin-2-ium-2-yl]oxymethyl]-7-[2-[(2-methylpropan-2-yl)oxy]-2-oxoethoxy]-2-oxo-1-benzopyran-6-yl]oxy]acetic acid tert-butyl ester

> <PUBCHEM_IUPAC_NAME_MARKUP>
<I>tert</I>-butyl 2-[4-[[(4<I>a</I><I>R</I>,6<I>R</I>,7<I>R</I>,7<I>a</I><I>S</I>)-6-(6-aminopurin-9-yl)-7-hydroxy-2-oxido-4<I>a</I>,6,7,7<I>a</I>-tetrahydro-4<I>H</I>-furo[3,2-d][1,3,2]dioxaphosphinin-2-ium-2-yl]oxymethyl]-7-[2-[(2-methylpropan-2-yl)oxy]-2-oxoethoxy]-2-oxochromen-6-yl]oxyacetate

> <PUBCHEM_IUPAC_NAME>
tert-butyl 2-[4-[[(4aR,6R,7R,7aS)-6-(6-aminopurin-9-yl)-7-hydroxy-2-oxido-4a,6,7,7a-tetrahydro-4H-furo[3,2-d][1,3,2]dioxaphosphinin-2-ium-2-yl]oxymethyl]-7-[2-[(2-methylpropan-2-yl)oxy]-2-oxoethoxy]-2-oxochromen-6-yl]oxyacetate

> <PUBCHEM_IUPAC_SYSTEMATIC_NAME>
tert-butyl 2-[4-[[(4aR,6R,7R,7aS)-6-(6-aminopurin-9-yl)-2-oxidanidyl-7-oxidanyl-4a,6,7,7a-tetrahydro-4H-furo[3,2-d][1,3,2]dioxaphosphinin-2-ium-2-yl]oxymethyl]-7-[2-[(2-methylpropan-2-yl)oxy]-2-oxidanylidene-ethoxy]-2-oxidanylidene-chromen-6-yl]oxyethanoate

> <PUBCHEM_IUPAC_TRADITIONAL_NAME>
2-[4-[[(4aR,6R,7R,7aS)-6-adenin-9-yl-7-hydroxy-2-oxido-4a,6,7,7a-tetrahydro-4H-furo[3,2-d][1,3,2]dioxaphosphorin-2-ium-2-yl]oxymethyl]-7-(2-tert-butoxy-2-keto-ethoxy)-2-keto-chromen-6-yl]oxyacetic acid tert-butyl ester

> <PUBCHEM_IUPAC_INCHI>
InChI=1S/C32H38N5O14P/c1-31(2,3)49-23(39)12-43-19-8-17-16(7-22(38)47-18(17)9-20(19)44-13-24(40)50-32(4,5)6)10-45-52(42)46-11-21-27(51-52)26(41)30(48-21)37-15-36-25-28(33)34-14-35-29(25)37/h7-9,14-15,21,26-27,30,41H,10-13H2,1-6H3,(H2,33,34,35)/t21-,26-,27-,30-,52?/m1/s1

> <PUBCHEM_IUPAC_INCHIKEY>
FSFZCLPZJHHUSV-QSEDLIODSA-N

> <PUBCHEM_XLOGP3_AA>
0.8

> <PUBCHEM_EXACT_MASS>
747.21528790

> <PUBCHEM_MOLECULAR_FORMULA>
C32H38N5O14P

> <PUBCHEM_MOLECULAR_WEIGHT>
747.6

> <PUBCHEM_OPENEYE_CAN_SMILES>
CC(C)(C)OC(=O)COC1=C(C=C2C(=C1)C(=CC(=O)O2)CO[P+]3(OCC4C(O3)C(C(O4)N5C=NC6=C(N=CN=C65)N)O)[O-])OCC(=O)OC(C)(C)C

> <PUBCHEM_OPENEYE_ISO_SMILES>
CC(C)(C)OC(=O)COC1=C(C=C2C(=C1)C(=CC(=O)O2)CO[P+]3(OC[C@@H]4[C@@H](O3)[C@H]([C@@H](O4)N5C=NC6=C(N=CN=C65)N)O)[O-])OCC(=O)OC(C)(C)C

> <PUBCHEM_CACTVS_TPSA>
247

> <PUBCHEM_MONOISOTOPIC_WEIGHT>
747.21528790

> <PUBCHEM_TOTAL_CHARGE>
0

> <PUBCHEM_HEAVY_ATOM_COUNT>
52

> <PUBCHEM_ATOM_DEF_STEREO_COUNT>
4

> <PUBCHEM_ATOM_UDEF_STEREO_COUNT>
0

> <PUBCHEM_BOND_DEF_STEREO_COUNT>
0

> <PUBCHEM_BOND_UDEF_STEREO_COUNT>
0

> <PUBCHEM_ISOTOPIC_ATOM_COUNT>
0

> <PUBCHEM_COMPONENT_COUNT>
1

> <PUBCHEM_CACTVS_TAUTO_COUNT>
-1

> <PUBCHEM_COORDINATE_TYPE>
1
5
255

> <PUBCHEM_BONDANNOTATIONS>
24  16  5
16  26  8
16  27  8
17  27  8
17  28  8
18  26  8
18  32  8
19  30  8
19  32  8
21  53  5
22  54  6
26  28  8
28  30  8
31  33  8
31  34  8
33  35  8
33  36  8
34  37  8
35  38  8
36  39  8
38  40  8
39  40  8
23  5  6
8  35  8
8  37  8

$$$$
