 
  -OEChem-10192104282D

 73 75  0     1  0  0  0  0  0999 V2000
    4.2690   -2.7500    0.0000 O   0  0  0  0  0  0  0  0  0  0  0  0
    8.5991    2.7500    0.0000 O   0  0  0  0  0  0  0  0  0  0  0  0
    6.0010   -2.7500    0.0000 O   0  0  0  0  0  0  0  0  0  0  0  0
    4.2690   -5.7500    0.0000 O   0  0  0  0  0  0  0  0  0  0  0  0
    2.5369   -4.7500    0.0000 O   0  0  0  0  0  0  0  0  0  0  0  0
    6.0010   -4.7500    0.0000 O   0  0  0  0  0  0  0  0  0  0  0  0
    6.8671    2.7500    0.0000 O   0  0  0  0  0  0  0  0  0  0  0  0
    8.5991    5.7500    0.0000 O   0  0  0  0  0  0  0  0  0  0  0  0
   10.3312    4.7500    0.0000 O   0  0  0  0  0  0  0  0  0  0  0  0
    6.8671    4.7500    0.0000 O   0  0  0  0  0  0  0  0  0  0  0  0
    2.5369   -1.7500    0.0000 O   0  0  0  0  0  0  0  0  0  0  0  0
   11.1972    3.2500    0.0000 O   0  0  0  0  0  0  0  0  0  0  0  0
    8.5991    1.7500    0.0000 O   0  0  0  0  0  0  0  0  0  0  0  0
    5.1350    1.7500    0.0000 O   0  0  0  0  0  0  0  0  0  0  0  0
    4.2690   -4.7500    0.0000 C   0  0  1  0  0  0  0  0  0  0  0  0
    3.4030   -4.2500    0.0000 C   0  0  1  0  0  0  0  0  0  0  0  0
    5.1350   -4.2500    0.0000 C   0  0  2  0  0  0  0  0  0  0  0  0
    3.4030   -3.2500    0.0000 C   0  0  1  0  0  0  0  0  0  0  0  0
    5.1350   -3.2500    0.0000 C   0  0  1  0  0  0  0  0  0  0  0  0
    8.5991    4.7500    0.0000 C   0  0  1  0  0  0  0  0  0  0  0  0
    9.4651    4.2500    0.0000 C   0  0  1  0  0  0  0  0  0  0  0  0
    7.7331    4.2500    0.0000 C   0  0  2  0  0  0  0  0  0  0  0  0
    9.4651    3.2500    0.0000 C   0  0  1  0  0  0  0  0  0  0  0  0
    7.7331    3.2500    0.0000 C   0  0  1  0  0  0  0  0  0  0  0  0
    2.5369   -2.7500    0.0000 C   0  0  0  0  0  0  0  0  0  0  0  0
    6.0010   -1.7500    0.0000 C   0  0  1  0  0  0  0  0  0  0  0  0
   10.3312    2.7500    0.0000 C   0  0  0  0  0  0  0  0  0  0  0  0
    6.8671   -1.2500    0.0000 C   0  0  0  0  0  0  0  0  0  0  0  0
    6.8671   -0.2500    0.0000 C   0  0  0  0  0  0  0  0  0  0  0  0
    6.8671    1.7500    0.0000 C   0  0  0  0  0  0  0  0  0  0  0  0
    5.1350   -1.2500    0.0000 C   0  0  0  0  0  0  0  0  0  0  0  0
    7.7331    1.2500    0.0000 C   0  0  0  0  0  0  0  0  0  0  0  0
    6.0010    1.2500    0.0000 C   0  0  0  0  0  0  0  0  0  0  0  0
    7.7331    0.2500    0.0000 C   0  0  0  0  0  0  0  0  0  0  0  0
    6.0010    0.2500    0.0000 C   0  0  0  0  0  0  0  0  0  0  0  0
    9.4651    1.2500    0.0000 C   0  0  0  0  0  0  0  0  0  0  0  0
    4.2690    1.2500    0.0000 C   0  0  0  0  0  0  0  0  0  0  0  0
    3.7320   -5.0600    0.0000 H   0  0  0  0  0  0  0  0  0  0  0  0
    3.4030   -4.8700    0.0000 H   0  0  0  0  0  0  0  0  0  0  0  0
    5.1350   -4.8700    0.0000 H   0  0  0  0  0  0  0  0  0  0  0  0
    3.4030   -2.6300    0.0000 H   0  0  0  0  0  0  0  0  0  0  0  0
    5.1350   -2.6300    0.0000 H   0  0  0  0  0  0  0  0  0  0  0  0
    9.1360    5.0600    0.0000 H   0  0  0  0  0  0  0  0  0  0  0  0
   10.0021    3.9400    0.0000 H   0  0  0  0  0  0  0  0  0  0  0  0
    7.7331    4.8700    0.0000 H   0  0  0  0  0  0  0  0  0  0  0  0
    9.4651    2.6300    0.0000 H   0  0  0  0  0  0  0  0  0  0  0  0
    7.7331    2.6300    0.0000 H   0  0  0  0  0  0  0  0  0  0  0  0
    1.9264   -2.6423    0.0000 H   0  0  0  0  0  0  0  0  0  0  0  0
    2.3249   -3.3326    0.0000 H   0  0  0  0  0  0  0  0  0  0  0  0
    6.5380   -2.0600    0.0000 H   0  0  0  0  0  0  0  0  0  0  0  0
    9.9326    2.2750    0.0000 H   0  0  0  0  0  0  0  0  0  0  0  0
   10.7297    2.2750    0.0000 H   0  0  0  0  0  0  0  0  0  0  0  0
    7.0791   -1.8326    0.0000 H   0  0  0  0  0  0  0  0  0  0  0  0
    7.4776   -1.1423    0.0000 H   0  0  0  0  0  0  0  0  0  0  0  0
    3.7320   -6.0600    0.0000 H   0  0  0  0  0  0  0  0  0  0  0  0
    2.0000   -4.4400    0.0000 H   0  0  0  0  0  0  0  0  0  0  0  0
    6.5380   -4.4400    0.0000 H   0  0  0  0  0  0  0  0  0  0  0  0
    9.1360    6.0600    0.0000 H   0  0  0  0  0  0  0  0  0  0  0  0
   10.3312    5.3700    0.0000 H   0  0  0  0  0  0  0  0  0  0  0  0
    6.8671    5.3700    0.0000 H   0  0  0  0  0  0  0  0  0  0  0  0
    5.4450   -0.7131    0.0000 H   0  0  0  0  0  0  0  0  0  0  0  0
    4.5981   -0.9400    0.0000 H   0  0  0  0  0  0  0  0  0  0  0  0
    4.8250   -1.7869    0.0000 H   0  0  0  0  0  0  0  0  0  0  0  0
    8.2700   -0.0600    0.0000 H   0  0  0  0  0  0  0  0  0  0  0  0
    5.4641   -0.0600    0.0000 H   0  0  0  0  0  0  0  0  0  0  0  0
    2.0000   -1.4400    0.0000 H   0  0  0  0  0  0  0  0  0  0  0  0
   11.7341    2.9400    0.0000 H   0  0  0  0  0  0  0  0  0  0  0  0
    9.1551    0.7131    0.0000 H   0  0  0  0  0  0  0  0  0  0  0  0
   10.0021    0.9400    0.0000 H   0  0  0  0  0  0  0  0  0  0  0  0
    9.7751    1.7869    0.0000 H   0  0  0  0  0  0  0  0  0  0  0  0
    3.9590    1.7869    0.0000 H   0  0  0  0  0  0  0  0  0  0  0  0
    3.7320    0.9400    0.0000 H   0  0  0  0  0  0  0  0  0  0  0  0
    4.5790    0.7131    0.0000 H   0  0  0  0  0  0  0  0  0  0  0  0
  1 18  1  0  0  0  0
  1 19  1  0  0  0  0
  2 23  1  0  0  0  0
  2 24  1  0  0  0  0
 19  3  1  1  0  0  0
 26  3  1  6  0  0  0
 15  4  1  1  0  0  0
  4 55  1  0  0  0  0
 16  5  1  6  0  0  0
  5 56  1  0  0  0  0
 17  6  1  6  0  0  0
  6 57  1  0  0  0  0
 24  7  1  1  0  0  0
  7 30  1  0  0  0  0
 20  8  1  1  0  0  0
  8 58  1  0  0  0  0
 21  9  1  6  0  0  0
  9 59  1  0  0  0  0
 22 10  1  6  0  0  0
 10 60  1  0  0  0  0
 11 25  1  0  0  0  0
 11 66  1  0  0  0  0
 12 27  1  0  0  0  0
 12 67  1  0  0  0  0
 13 32  1  0  0  0  0
 13 36  1  0  0  0  0
 14 33  1  0  0  0  0
 14 37  1  0  0  0  0
 15 16  1  0  0  0  0
 15 17  1  0  0  0  0
 15 38  1  0  0  0  0
 16 18  1  0  0  0  0
 16 39  1  0  0  0  0
 17 19  1  0  0  0  0
 17 40  1  0  0  0  0
 18 25  1  1  0  0  0
 18 41  1  0  0  0  0
 19 42  1  0  0  0  0
 20 21  1  0  0  0  0
 20 22  1  0  0  0  0
 20 43  1  0  0  0  0
 21 23  1  0  0  0  0
 21 44  1  0  0  0  0
 22 24  1  0  0  0  0
 22 45  1  0  0  0  0
 23 27  1  1  0  0  0
 23 46  1  0  0  0  0
 24 47  1  0  0  0  0
 25 48  1  0  0  0  0
 25 49  1  0  0  0  0
 26 28  1  0  0  0  0
 26 31  1  0  0  0  0
 26 50  1  0  0  0  0
 27 51  1  0  0  0  0
 27 52  1  0  0  0  0
 28 29  1  0  0  0  0
 28 53  1  0  0  0  0
 28 54  1  0  0  0  0
 29 34  2  0  0  0  0
 29 35  1  0  0  0  0
 30 32  2  0  0  0  0
 30 33  1  0  0  0  0
 31 61  1  0  0  0  0
 31 62  1  0  0  0  0
 31 63  1  0  0  0  0
 32 34  1  0  0  0  0
 33 35  2  0  0  0  0
 34 64  1  0  0  0  0
 35 65  1  0  0  0  0
 36 68  1  0  0  0  0
 36 69  1  0  0  0  0
 36 70  1  0  0  0  0
 37 71  1  0  0  0  0
 37 72  1  0  0  0  0
 37 73  1  0  0  0  0
M  END
> <PUBCHEM_COMPOUND_CID>
5320519

> <PUBCHEM_COMPOUND_CANONICALIZED>
1

> <PUBCHEM_CACTVS_COMPLEXITY>
672

> <PUBCHEM_CACTVS_HBOND_ACCEPTOR>
14

> <PUBCHEM_CACTVS_HBOND_DONOR>
8

> <PUBCHEM_CACTVS_ROTATABLE_BOND>
10

> <PUBCHEM_CACTVS_SUBSKEYS>
AAADcfB4PAAAAAAAAAAAAAAAAAAAAAAAAAA0SIAAAAAAAAABAAAAGgAACAAADBSwmAMyDoAABgCAAiBCAAACCAAgIAAAiAAGiIgdNyKEMRqieCKlwBUPqAfA4LwOIAABCAAAQABAAAIQAACAAAAAAAAAAA==

> <PUBCHEM_IUPAC_OPENEYE_NAME>
(2S,3R,4S,5S,6R)-2-[2,6-dimethoxy-4-[(2R)-2-[(2R,3R,4S,5S,6R)-3,4,5-trihydroxy-6-(hydroxymethyl)tetrahydropyran-2-yl]oxypropyl]phenoxy]-6-(hydroxymethyl)tetrahydropyran-3,4,5-triol

> <PUBCHEM_IUPAC_CAS_NAME>
(2S,3R,4S,5S,6R)-2-[2,6-dimethoxy-4-[(2R)-2-[[(2R,3R,4S,5S,6R)-3,4,5-trihydroxy-6-(hydroxymethyl)-2-oxanyl]oxy]propyl]phenoxy]-6-(hydroxymethyl)oxane-3,4,5-triol

> <PUBCHEM_IUPAC_NAME_MARKUP>
(2<I>S</I>,3<I>R</I>,4<I>S</I>,5<I>S</I>,6<I>R</I>)-2-[2,6-dimethoxy-4-[(2<I>R</I>)-2-[(2<I>R</I>,3<I>R</I>,4<I>S</I>,5<I>S</I>,6<I>R</I>)-3,4,5-trihydroxy-6-(hydroxymethyl)oxan-2-yl]oxypropyl]phenoxy]-6-(hydroxymethyl)oxane-3,4,5-triol

> <PUBCHEM_IUPAC_NAME>
(2S,3R,4S,5S,6R)-2-[2,6-dimethoxy-4-[(2R)-2-[(2R,3R,4S,5S,6R)-3,4,5-trihydroxy-6-(hydroxymethyl)oxan-2-yl]oxypropyl]phenoxy]-6-(hydroxymethyl)oxane-3,4,5-triol

> <PUBCHEM_IUPAC_SYSTEMATIC_NAME>
(2R,3S,4S,5R,6S)-2-(hydroxymethyl)-6-[4-[(2R)-2-[(2R,3R,4S,5S,6R)-6-(hydroxymethyl)-3,4,5-tris(oxidanyl)oxan-2-yl]oxypropyl]-2,6-dimethoxy-phenoxy]oxane-3,4,5-triol

> <PUBCHEM_IUPAC_TRADITIONAL_NAME>
(2S,3R,4S,5S,6R)-2-[2,6-dimethoxy-4-[(2R)-2-[(2R,3R,4S,5S,6R)-3,4,5-trihydroxy-6-methylol-tetrahydropyran-2-yl]oxypropyl]phenoxy]-6-methylol-tetrahydropyran-3,4,5-triol

> <PUBCHEM_IUPAC_INCHI>
InChI=1S/C23H36O14/c1-9(34-22-19(30)17(28)15(26)13(7-24)35-22)4-10-5-11(32-2)21(12(6-10)33-3)37-23-20(31)18(29)16(27)14(8-25)36-23/h5-6,9,13-20,22-31H,4,7-8H2,1-3H3/t9-,13-,14-,15-,16-,17+,18+,19-,20-,22-,23+/m1/s1

> <PUBCHEM_IUPAC_INCHIKEY>
CXGBWJJEESYKKB-VEUDAGKWSA-N

> <PUBCHEM_XLOGP3_AA>
-1.9

> <PUBCHEM_EXACT_MASS>
536.21050582

> <PUBCHEM_MOLECULAR_FORMULA>
C23H36O14

> <PUBCHEM_MOLECULAR_WEIGHT>
536.5

> <PUBCHEM_OPENEYE_CAN_SMILES>
CC(CC1=CC(=C(C(=C1)OC)OC2C(C(C(C(O2)CO)O)O)O)OC)OC3C(C(C(C(O3)CO)O)O)O

> <PUBCHEM_OPENEYE_ISO_SMILES>
C[C@H](CC1=CC(=C(C(=C1)OC)O[C@H]2[C@@H]([C@H]([C@@H]([C@H](O2)CO)O)O)O)OC)O[C@H]3[C@@H]([C@H]([C@@H]([C@H](O3)CO)O)O)O

> <PUBCHEM_CACTVS_TPSA>
217

> <PUBCHEM_MONOISOTOPIC_WEIGHT>
536.21050582

> <PUBCHEM_TOTAL_CHARGE>
0

> <PUBCHEM_HEAVY_ATOM_COUNT>
37

> <PUBCHEM_ATOM_DEF_STEREO_COUNT>
11

> <PUBCHEM_ATOM_UDEF_STEREO_COUNT>
0

> <PUBCHEM_BOND_DEF_STEREO_COUNT>
0

> <PUBCHEM_BOND_UDEF_STEREO_COUNT>
0

> <PUBCHEM_ISOTOPIC_ATOM_COUNT>
0

> <PUBCHEM_COMPONENT_COUNT>
1

> <PUBCHEM_CACTVS_TAUTO_COUNT>
-1

> <PUBCHEM_COORDINATE_TYPE>
1
5
255

> <PUBCHEM_BONDANNOTATIONS>
22  10  6
18  25  5
23  27  5
29  34  8
29  35  8
19  3  5
26  3  6
30  32  8
30  33  8
32  34  8
33  35  8
15  4  5
16  5  6
17  6  6
24  7  5
20  8  5
21  9  6

$$$$
