 
  -OEChem-10192104312D

 68 71  0     1  0  0  0  0  0999 V2000
    7.8003   -2.7500    0.0000 O   0  0  0  0  0  0  0  0  0  0  0  0
    7.8003    0.2500    0.0000 O   0  0  0  0  0  0  0  0  0  0  0  0
    9.5323   -1.7500    0.0000 O   0  0  0  0  0  0  0  0  0  0  0  0
   10.3984   -0.2500    0.0000 O   0  0  0  0  0  0  0  0  0  0  0  0
    6.9343   -1.2500    0.0000 O   0  0  0  0  0  0  0  0  0  0  0  0
   10.3984    1.7500    0.0000 O   0  0  0  0  0  0  0  0  0  0  0  0
    6.0682   -4.7500    0.0000 O   0  0  0  0  0  0  0  0  0  0  0  0
    6.0682   -1.7500    0.0000 O   0  0  0  0  0  0  0  0  0  0  0  0
    4.3198   -1.7154    0.0000 O   0  0  0  0  0  0  0  0  0  0  0  0
    2.5381   -4.7742    0.0000 O   0  0  0  0  0  0  0  0  0  0  0  0
    9.5323    3.2500    0.0000 O   0  0  0  0  0  0  0  0  0  0  0  0
   10.3984   -6.2500    0.0000 O   0  0  0  0  0  0  0  0  0  0  0  0
   14.7285    6.2500    0.0000 O   0  0  0  0  0  0  0  0  0  0  0  0
    8.6663   -0.2500    0.0000 C   0  0  3  0  0  0  0  0  0  0  0  0
    8.6663   -1.2500    0.0000 C   0  0  3  0  0  0  0  0  0  0  0  0
    9.5323    0.2500    0.0000 C   0  0  3  0  0  0  0  0  0  0  0  0
    7.8003   -1.7500    0.0000 C   0  0  3  0  0  0  0  0  0  0  0  0
    9.5323    1.2500    0.0000 C   0  0  0  0  0  0  0  0  0  0  0  0
    6.9343   -3.2500    0.0000 C   0  0  0  0  0  0  0  0  0  0  0  0
    6.9343   -4.2500    0.0000 C   0  0  0  0  0  0  0  0  0  0  0  0
    6.0682   -2.7500    0.0000 C   0  0  0  0  0  0  0  0  0  0  0  0
    5.2022   -3.2500    0.0000 C   0  0  0  0  0  0  0  0  0  0  0  0
    5.2022   -4.2500    0.0000 C   0  0  0  0  0  0  0  0  0  0  0  0
    7.8003   -4.7500    0.0000 C   0  0  0  0  0  0  0  0  0  0  0  0
    4.3083   -2.7153    0.0000 C   0  0  0  0  0  0  0  0  0  0  0  0
    4.3083   -4.7847    0.0000 C   0  0  0  0  0  0  0  0  0  0  0  0
    3.4022   -3.2292    0.0000 C   0  0  0  0  0  0  0  0  0  0  0  0
    3.4022   -4.2708    0.0000 C   0  0  0  0  0  0  0  0  0  0  0  0
    8.6663   -4.2500    0.0000 C   0  0  0  0  0  0  0  0  0  0  0  0
    7.8003   -5.7500    0.0000 C   0  0  0  0  0  0  0  0  0  0  0  0
   10.3984    2.7500    0.0000 C   0  0  0  0  0  0  0  0  0  0  0  0
    9.5323   -4.7500    0.0000 C   0  0  0  0  0  0  0  0  0  0  0  0
    8.6663   -6.2500    0.0000 C   0  0  0  0  0  0  0  0  0  0  0  0
    9.5323   -5.7500    0.0000 C   0  0  0  0  0  0  0  0  0  0  0  0
   11.2644    3.2500    0.0000 C   0  0  0  0  0  0  0  0  0  0  0  0
   11.2644    4.2500    0.0000 C   0  0  0  0  0  0  0  0  0  0  0  0
   12.1304    4.7500    0.0000 C   0  0  0  0  0  0  0  0  0  0  0  0
   12.1304    5.7500    0.0000 C   0  0  0  0  0  0  0  0  0  0  0  0
   12.9965    4.2500    0.0000 C   0  0  0  0  0  0  0  0  0  0  0  0
   12.9965    6.2500    0.0000 C   0  0  0  0  0  0  0  0  0  0  0  0
   13.8625    4.7500    0.0000 C   0  0  0  0  0  0  0  0  0  0  0  0
   13.8625    5.7500    0.0000 C   0  0  0  0  0  0  0  0  0  0  0  0
    8.1294   -0.5600    0.0000 H   0  0  0  0  0  0  0  0  0  0  0  0
    8.6663   -1.8700    0.0000 H   0  0  0  0  0  0  0  0  0  0  0  0
   10.0693    0.5600    0.0000 H   0  0  0  0  0  0  0  0  0  0  0  0
    7.2634   -2.0600    0.0000 H   0  0  0  0  0  0  0  0  0  0  0  0
    9.3203    1.8326    0.0000 H   0  0  0  0  0  0  0  0  0  0  0  0
    8.9218    1.1423    0.0000 H   0  0  0  0  0  0  0  0  0  0  0  0
    7.8003    0.8700    0.0000 H   0  0  0  0  0  0  0  0  0  0  0  0
   10.0693   -1.4400    0.0000 H   0  0  0  0  0  0  0  0  0  0  0  0
   10.9353    0.0600    0.0000 H   0  0  0  0  0  0  0  0  0  0  0  0
    6.9343   -0.6300    0.0000 H   0  0  0  0  0  0  0  0  0  0  0  0
    4.3154   -5.4046    0.0000 H   0  0  0  0  0  0  0  0  0  0  0  0
    2.8665   -2.9171    0.0000 H   0  0  0  0  0  0  0  0  0  0  0  0
    8.6663   -3.6300    0.0000 H   0  0  0  0  0  0  0  0  0  0  0  0
    7.2634   -6.0600    0.0000 H   0  0  0  0  0  0  0  0  0  0  0  0
   10.0693   -4.4400    0.0000 H   0  0  0  0  0  0  0  0  0  0  0  0
    8.6663   -6.8700    0.0000 H   0  0  0  0  0  0  0  0  0  0  0  0
   11.8013    2.9400    0.0000 H   0  0  0  0  0  0  0  0  0  0  0  0
    3.7865   -1.3992    0.0000 H   0  0  0  0  0  0  0  0  0  0  0  0
    2.0000   -4.4662    0.0000 H   0  0  0  0  0  0  0  0  0  0  0  0
   10.7275    4.5600    0.0000 H   0  0  0  0  0  0  0  0  0  0  0  0
   10.3984   -6.8700    0.0000 H   0  0  0  0  0  0  0  0  0  0  0  0
   11.5935    6.0600    0.0000 H   0  0  0  0  0  0  0  0  0  0  0  0
   12.9965    3.6300    0.0000 H   0  0  0  0  0  0  0  0  0  0  0  0
   12.9965    6.8700    0.0000 H   0  0  0  0  0  0  0  0  0  0  0  0
   14.3994    4.4400    0.0000 H   0  0  0  0  0  0  0  0  0  0  0  0
   14.7285    6.8700    0.0000 H   0  0  0  0  0  0  0  0  0  0  0  0
  1 17  1  0  0  0  0
  1 19  1  0  0  0  0
  2 14  1  0  0  0  0
  2 49  1  0  0  0  0
  3 15  1  0  0  0  0
  3 50  1  0  0  0  0
  4 16  1  0  0  0  0
  4 51  1  0  0  0  0
  5 17  1  0  0  0  0
  5 52  1  0  0  0  0
  6 18  1  0  0  0  0
  6 31  1  0  0  0  0
  7 20  1  0  0  0  0
  7 23  1  0  0  0  0
  8 21  2  0  0  0  0
  9 25  1  0  0  0  0
  9 60  1  0  0  0  0
 10 28  1  0  0  0  0
 10 61  1  0  0  0  0
 11 31  2  0  0  0  0
 12 34  1  0  0  0  0
 12 63  1  0  0  0  0
 13 42  1  0  0  0  0
 13 68  1  0  0  0  0
 14 15  1  0  0  0  0
 14 16  1  0  0  0  0
 14 43  1  0  0  0  0
 15 17  1  0  0  0  0
 15 44  1  0  0  0  0
 16 18  1  0  0  0  0
 16 45  1  0  0  0  0
 17 46  1  0  0  0  0
 18 47  1  0  0  0  0
 18 48  1  0  0  0  0
 19 20  2  0  0  0  0
 19 21  1  0  0  0  0
 20 24  1  0  0  0  0
 21 22  1  0  0  0  0
 22 23  1  0  0  0  0
 22 25  2  0  0  0  0
 23 26  2  0  0  0  0
 24 29  2  0  0  0  0
 24 30  1  0  0  0  0
 25 27  1  0  0  0  0
 26 28  1  0  0  0  0
 26 53  1  0  0  0  0
 27 28  2  0  0  0  0
 27 54  1  0  0  0  0
 29 32  1  0  0  0  0
 29 55  1  0  0  0  0
 30 33  2  0  0  0  0
 30 56  1  0  0  0  0
 31 35  1  0  0  0  0
 32 34  2  0  0  0  0
 32 57  1  0  0  0  0
 33 34  1  0  0  0  0
 33 58  1  0  0  0  0
 35 36  2  0  0  0  0
 35 59  1  0  0  0  0
 36 37  1  0  0  0  0
 36 62  1  0  0  0  0
 37 38  2  0  0  0  0
 37 39  1  0  0  0  0
 38 40  1  0  0  0  0
 38 64  1  0  0  0  0
 39 41  2  0  0  0  0
 39 65  1  0  0  0  0
 40 42  2  0  0  0  0
 40 66  1  0  0  0  0
 41 42  1  0  0  0  0
 41 67  1  0  0  0  0
M  END
> <PUBCHEM_COMPOUND_CID>
129190587

> <PUBCHEM_COMPOUND_CANONICALIZED>
1

> <PUBCHEM_CACTVS_COMPLEXITY>
982

> <PUBCHEM_CACTVS_HBOND_ACCEPTOR>
13

> <PUBCHEM_CACTVS_HBOND_DONOR>
8

> <PUBCHEM_CACTVS_ROTATABLE_BOND>
11

> <PUBCHEM_CACTVS_SUBSKEYS>
AAADceB4PAAAAAAAAAAAAAAAAAAAAAAAAAAwYMEAAAAAAACBUAAAGgAACAAADBSwmAMwDoAABgCIAqDSCAICCAAkIAAIiAFGCMgdNzaGNR6CeWCl4BUPuYfI7KzOIAAACAAIAABAAAAQABAAAAAAAAAAAA==

> <PUBCHEM_IUPAC_OPENEYE_NAME>
[5-[5,7-dihydroxy-2-(4-hydroxyphenyl)-4-oxo-chromen-3-yl]oxy-2,3,4,5-tetrahydroxy-pentyl] (E)-3-(4-hydroxyphenyl)prop-2-enoate

> <PUBCHEM_IUPAC_CAS_NAME>
(E)-3-(4-hydroxyphenyl)-2-propenoic acid [5-[[5,7-dihydroxy-2-(4-hydroxyphenyl)-4-oxo-1-benzopyran-3-yl]oxy]-2,3,4,5-tetrahydroxypentyl] ester

> <PUBCHEM_IUPAC_NAME_MARKUP>
[5-[5,7-dihydroxy-2-(4-hydroxyphenyl)-4-oxochromen-3-yl]oxy-2,3,4,5-tetrahydroxypentyl] (<I>E</I>)-3-(4-hydroxyphenyl)prop-2-enoate

> <PUBCHEM_IUPAC_NAME>
[5-[5,7-dihydroxy-2-(4-hydroxyphenyl)-4-oxochromen-3-yl]oxy-2,3,4,5-tetrahydroxypentyl] (E)-3-(4-hydroxyphenyl)prop-2-enoate

> <PUBCHEM_IUPAC_SYSTEMATIC_NAME>
[5-[2-(4-hydroxyphenyl)-5,7-bis(oxidanyl)-4-oxidanylidene-chromen-3-yl]oxy-2,3,4,5-tetrakis(oxidanyl)pentyl] (E)-3-(4-hydroxyphenyl)prop-2-enoate

> <PUBCHEM_IUPAC_TRADITIONAL_NAME>
(E)-3-(4-hydroxyphenyl)acrylic acid [5-[5,7-dihydroxy-2-(4-hydroxyphenyl)-4-keto-chromen-3-yl]oxy-2,3,4,5-tetrahydroxy-pentyl] ester

> <PUBCHEM_IUPAC_INCHI>
InChI=1S/C29H26O13/c30-16-6-1-14(2-7-16)3-10-22(35)40-13-20(34)24(36)26(38)29(39)42-28-25(37)23-19(33)11-18(32)12-21(23)41-27(28)15-4-8-17(31)9-5-15/h1-12,20,24,26,29-34,36,38-39H,13H2/b10-3+

> <PUBCHEM_IUPAC_INCHIKEY>
VFVABWZJNNPNKH-XCVCLJGOSA-N

> <PUBCHEM_XLOGP3_AA>
2.1

> <PUBCHEM_EXACT_MASS>
582.13734088

> <PUBCHEM_MOLECULAR_FORMULA>
C29H26O13

> <PUBCHEM_MOLECULAR_WEIGHT>
582.5

> <PUBCHEM_OPENEYE_CAN_SMILES>
C1=CC(=CC=C1C=CC(=O)OCC(C(C(C(O)OC2=C(OC3=CC(=CC(=C3C2=O)O)O)C4=CC=C(C=C4)O)O)O)O)O

> <PUBCHEM_OPENEYE_ISO_SMILES>
C1=CC(=CC=C1/C=C/C(=O)OCC(C(C(C(O)OC2=C(OC3=CC(=CC(=C3C2=O)O)O)C4=CC=C(C=C4)O)O)O)O)O

> <PUBCHEM_CACTVS_TPSA>
224

> <PUBCHEM_MONOISOTOPIC_WEIGHT>
582.13734088

> <PUBCHEM_TOTAL_CHARGE>
0

> <PUBCHEM_HEAVY_ATOM_COUNT>
42

> <PUBCHEM_ATOM_DEF_STEREO_COUNT>
0

> <PUBCHEM_ATOM_UDEF_STEREO_COUNT>
4

> <PUBCHEM_BOND_DEF_STEREO_COUNT>
1

> <PUBCHEM_BOND_UDEF_STEREO_COUNT>
0

> <PUBCHEM_ISOTOPIC_ATOM_COUNT>
0

> <PUBCHEM_COMPONENT_COUNT>
1

> <PUBCHEM_CACTVS_TAUTO_COUNT>
-1

> <PUBCHEM_COORDINATE_TYPE>
1
5
255

> <PUBCHEM_BONDANNOTATIONS>
19  20  8
19  21  8
14  2  3
21  22  8
22  23  8
22  25  8
23  26  8
24  29  8
24  30  8
25  27  8
26  28  8
27  28  8
29  32  8
15  3  3
30  33  8
32  34  8
33  34  8
37  38  8
37  39  8
38  40  8
39  41  8
16  4  3
40  42  8
41  42  8
17  5  3
7  20  8
7  23  8

$$$$
