 
  -OEChem-10192104162D

 27 28  0     0  0  0  0  0  0999 V2000
    4.2208   -1.0008    0.0000 S   0  0  0  0  0  0  0  0  0  0  0  0
    5.2208   -1.0008    0.0000 O   0  0  0  0  0  0  0  0  0  0  0  0
    3.2208   -1.0008    0.0000 O   0  0  0  0  0  0  0  0  0  0  0  0
    5.0298   -2.5886    0.0000 N   0  0  0  0  0  0  0  0  0  0  0  0
    4.2208   -0.0008    0.0000 N   0  0  0  0  0  0  0  0  0  0  0  0
    3.7208   -3.5396    0.0000 N   0  0  0  0  0  0  0  0  0  0  0  0
    2.4608   -2.2796    0.0000 N   0  0  0  0  0  0  0  0  0  0  0  0
    4.2778    2.0870    0.0000 N   0  0  0  0  0  0  0  0  0  0  0  0
    5.8959    2.0870    0.0000 N   0  0  0  0  0  0  0  0  0  0  0  0
    4.5868    3.0380    0.0000 N   0  0  0  0  0  0  0  0  0  0  0  0
    5.5868    3.0380    0.0000 N   0  0  0  0  0  0  0  0  0  0  0  0
    4.2208   -2.0008    0.0000 C   0  0  0  0  0  0  0  0  0  0  0  0
    3.4118   -2.5886    0.0000 C   0  0  0  0  0  0  0  0  0  0  0  0
    5.0868    0.4992    0.0000 C   0  0  0  0  0  0  0  0  0  0  0  0
    4.7208   -3.5396    0.0000 C   0  0  0  0  0  0  0  0  0  0  0  0
    5.9809   -2.2796    0.0000 C   0  0  0  0  0  0  0  0  0  0  0  0
    5.0868    1.4992    0.0000 C   0  0  0  0  0  0  0  0  0  0  0  0
    3.6839    0.3092    0.0000 H   0  0  0  0  0  0  0  0  0  0  0  0
    5.2989   -0.0834    0.0000 H   0  0  0  0  0  0  0  0  0  0  0  0
    5.6974    0.6069    0.0000 H   0  0  0  0  0  0  0  0  0  0  0  0
    5.0852   -4.0412    0.0000 H   0  0  0  0  0  0  0  0  0  0  0  0
    6.1725   -2.8692    0.0000 H   0  0  0  0  0  0  0  0  0  0  0  0
    6.5706   -2.0880    0.0000 H   0  0  0  0  0  0  0  0  0  0  0  0
    5.7893   -1.6899    0.0000 H   0  0  0  0  0  0  0  0  0  0  0  0
    2.0000   -2.6944    0.0000 H   0  0  0  0  0  0  0  0  0  0  0  0
    2.3318   -1.6731    0.0000 H   0  0  0  0  0  0  0  0  0  0  0  0
    4.2224    3.5396    0.0000 H   0  0  0  0  0  0  0  0  0  0  0  0
  1  2  2  0  0  0  0
  1  3  2  0  0  0  0
  1  5  1  0  0  0  0
  1 12  1  0  0  0  0
  4 12  1  0  0  0  0
  4 15  1  0  0  0  0
  4 16  1  0  0  0  0
  5 14  1  0  0  0  0
  5 18  1  0  0  0  0
  6 13  1  0  0  0  0
  6 15  2  0  0  0  0
  7 13  1  0  0  0  0
  7 25  1  0  0  0  0
  7 26  1  0  0  0  0
  8 10  1  0  0  0  0
  8 17  2  0  0  0  0
  9 11  2  0  0  0  0
  9 17  1  0  0  0  0
 10 11  1  0  0  0  0
 10 27  1  0  0  0  0
 12 13  2  0  0  0  0
 14 17  1  0  0  0  0
 14 19  1  0  0  0  0
 14 20  1  0  0  0  0
 15 21  1  0  0  0  0
 16 22  1  0  0  0  0
 16 23  1  0  0  0  0
 16 24  1  0  0  0  0
M  END
> <PUBCHEM_COMPOUND_CID>
64008397

> <PUBCHEM_COMPOUND_CANONICALIZED>
1

> <PUBCHEM_CACTVS_COMPLEXITY>
356

> <PUBCHEM_CACTVS_HBOND_ACCEPTOR>
8

> <PUBCHEM_CACTVS_HBOND_DONOR>
3

> <PUBCHEM_CACTVS_ROTATABLE_BOND>
4

> <PUBCHEM_CACTVS_SUBSKEYS>
AAADccBj8ABAAAAAAAAAAAAAAAAAAWLAAAAAAAAAAAAAAAAB4AAAHAQYQAAAAADBQwQHsRdOEAKiAAIhZHBI0D8REKAVYIQYEACASAAACAAQAAAIAAIAACAAAAAAAAAAAAAAAAAAAAAAAAAAAAAAAAAAAA==

> <PUBCHEM_IUPAC_OPENEYE_NAME>
5-amino-3-methyl-N-(2H-tetrazol-5-ylmethyl)imidazole-4-sulfonamide

> <PUBCHEM_IUPAC_CAS_NAME>
5-amino-3-methyl-N-(2H-tetrazol-5-ylmethyl)-4-imidazolesulfonamide

> <PUBCHEM_IUPAC_NAME_MARKUP>
5-amino-3-methyl-<I>N</I>-(2<I>H</I>-tetrazol-5-ylmethyl)imidazole-4-sulfonamide

> <PUBCHEM_IUPAC_NAME>
5-amino-3-methyl-N-(2H-tetrazol-5-ylmethyl)imidazole-4-sulfonamide

> <PUBCHEM_IUPAC_SYSTEMATIC_NAME>
5-azanyl-3-methyl-N-(2H-1,2,3,4-tetrazol-5-ylmethyl)imidazole-4-sulfonamide

> <PUBCHEM_IUPAC_TRADITIONAL_NAME>
5-amino-3-methyl-N-(2H-tetrazol-5-ylmethyl)imidazole-4-sulfonamide

> <PUBCHEM_IUPAC_INCHI>
InChI=1S/C6H10N8O2S/c1-14-3-8-5(7)6(14)17(15,16)9-2-4-10-12-13-11-4/h3,9H,2,7H2,1H3,(H,10,11,12,13)

> <PUBCHEM_IUPAC_INCHIKEY>
IJOYEFZVMXDUCS-UHFFFAOYSA-N

> <PUBCHEM_XLOGP3_AA>
-1.4

> <PUBCHEM_EXACT_MASS>
258.06474277

> <PUBCHEM_MOLECULAR_FORMULA>
C6H10N8O2S

> <PUBCHEM_MOLECULAR_WEIGHT>
258.26

> <PUBCHEM_OPENEYE_CAN_SMILES>
CN1C=NC(=C1S(=O)(=O)NCC2=NNN=N2)N

> <PUBCHEM_OPENEYE_ISO_SMILES>
CN1C=NC(=C1S(=O)(=O)NCC2=NNN=N2)N

> <PUBCHEM_CACTVS_TPSA>
153

> <PUBCHEM_MONOISOTOPIC_WEIGHT>
258.06474277

> <PUBCHEM_TOTAL_CHARGE>
0

> <PUBCHEM_HEAVY_ATOM_COUNT>
17

> <PUBCHEM_ATOM_DEF_STEREO_COUNT>
0

> <PUBCHEM_ATOM_UDEF_STEREO_COUNT>
0

> <PUBCHEM_BOND_DEF_STEREO_COUNT>
0

> <PUBCHEM_BOND_UDEF_STEREO_COUNT>
0

> <PUBCHEM_ISOTOPIC_ATOM_COUNT>
0

> <PUBCHEM_COMPONENT_COUNT>
1

> <PUBCHEM_CACTVS_TAUTO_COUNT>
-1

> <PUBCHEM_COORDINATE_TYPE>
1
5
255

> <PUBCHEM_BONDANNOTATIONS>
10  11  8
12  13  8
4  12  8
4  15  8
6  13  8
6  15  8
8  10  8
8  17  8
9  11  8
9  17  8

$$$$
