 
  -OEChem-10192103472D

 86 89  0     1  0  0  0  0  0999 V2000
   14.1458   -6.0189    0.0000 S   0  0  0  0  0  0  0  0  0  0  0  0
    3.6790    3.3727    0.0000 S   0  0  0  0  0  0  0  0  0  0  0  0
   10.8619   -1.7439    0.0000 S   0  0  0  0  0  0  0  0  0  0  0  0
    8.2836    0.5695    0.0000 S   0  0  0  0  0  0  0  0  0  0  0  0
   18.2145   -6.0189    0.0000 O   0  0  0  0  0  0  0  0  0  0  0  0
    3.2398    7.4176    0.0000 O   0  0  0  0  0  0  0  0  0  0  0  0
   12.5082   -1.2058    0.0000 O   0  0  0  0  0  0  0  0  0  0  0  0
    8.6407    2.2644    0.0000 O   0  0  0  0  0  0  0  0  0  0  0  0
   11.6228    4.2910    0.0000 O   0  0  0  0  0  0  0  0  0  0  0  0
   12.9119    3.1343    0.0000 O   0  0  0  0  0  0  0  0  0  0  0  0
   16.6267   -5.2099    0.0000 N   0  0  0  0  0  0  0  0  0  0  0  0
    4.2155    5.9264    0.0000 N   0  0  0  0  0  0  0  0  0  0  0  0
   16.6267   -6.8279    0.0000 N   0  0  0  0  0  0  0  0  0  0  0  0
    2.6069    5.7517    0.0000 N   0  0  0  0  0  0  0  0  0  0  0  0
   15.6756   -5.5189    0.0000 C   0  0  3  0  0  0  0  0  0  0  0  0
    4.0109    4.9475    0.0000 C   0  0  3  0  0  0  0  0  0  0  0  0
   15.6756   -6.5189    0.0000 C   0  0  3  0  0  0  0  0  0  0  0  0
    3.0168    4.8396    0.0000 C   0  0  3  0  0  0  0  0  0  0  0  0
   14.7294   -5.2142    0.0000 C   0  0  3  0  0  0  0  0  0  0  0  0
    4.4161    4.0398    0.0000 C   0  0  3  0  0  0  0  0  0  0  0  0
   14.7294   -6.8236    0.0000 C   0  0  0  0  0  0  0  0  0  0  0  0
    2.8160    3.8660    0.0000 C   0  0  0  0  0  0  0  0  0  0  0  0
   14.4187   -4.2636    0.0000 C   0  0  0  0  0  0  0  0  0  0  0  0
    5.3946    3.8335    0.0000 C   0  0  0  0  0  0  0  0  0  0  0  0
   17.2145   -6.0189    0.0000 C   0  0  0  0  0  0  0  0  0  0  0  0
    3.3477    6.4234    0.0000 C   0  0  0  0  0  0  0  0  0  0  0  0
   13.4402   -4.0574    0.0000 C   0  0  0  0  0  0  0  0  0  0  0  0
    5.7052    2.8830    0.0000 C   0  0  0  0  0  0  0  0  0  0  0  0
   13.1296   -3.1069    0.0000 C   0  0  0  0  0  0  0  0  0  0  0  0
    6.6837    2.6768    0.0000 C   0  0  0  0  0  0  0  0  0  0  0  0
   12.1511   -2.9007    0.0000 C   0  0  0  0  0  0  0  0  0  0  0  0
    6.9944    1.7263    0.0000 C   0  0  0  0  0  0  0  0  0  0  0  0
   11.8404   -1.9502    0.0000 C   0  0  0  0  0  0  0  0  0  0  0  0
    7.9729    1.5201    0.0000 C   0  0  0  0  0  0  0  0  0  0  0  0
   10.5512   -0.7934    0.0000 C   0  0  3  0  0  0  0  0  0  0  0  0
    9.5727   -0.5872    0.0000 C   0  0  0  0  0  0  0  0  0  0  0  0
   11.2191   -0.0491    0.0000 C   0  0  0  0  0  0  0  0  0  0  0  0
    9.2621    0.3633    0.0000 C   0  0  0  0  0  0  0  0  0  0  0  0
   10.9084    0.9014    0.0000 C   0  0  0  0  0  0  0  0  0  0  0  0
   11.5763    1.6457    0.0000 C   0  0  0  0  0  0  0  0  0  0  0  0
   11.2656    2.5962    0.0000 C   0  0  0  0  0  0  0  0  0  0  0  0
   11.9334    3.3405    0.0000 C   0  0  0  0  0  0  0  0  0  0  0  0
   15.6748   -4.8989    0.0000 H   0  0  0  0  0  0  0  0  0  0  0  0
    4.6274    5.0137    0.0000 H   0  0  0  0  0  0  0  0  0  0  0  0
   15.6748   -7.1389    0.0000 H   0  0  0  0  0  0  0  0  0  0  0  0
    2.4005    4.7718    0.0000 H   0  0  0  0  0  0  0  0  0  0  0  0
   14.1169   -5.1180    0.0000 H   0  0  0  0  0  0  0  0  0  0  0  0
    4.5778    3.4412    0.0000 H   0  0  0  0  0  0  0  0  0  0  0  0
   14.1920   -7.1328    0.0000 H   0  0  0  0  0  0  0  0  0  0  0  0
   14.9804   -7.3905    0.0000 H   0  0  0  0  0  0  0  0  0  0  0  0
    2.2253    4.0543    0.0000 H   0  0  0  0  0  0  0  0  0  0  0  0
    2.5666    3.2984    0.0000 H   0  0  0  0  0  0  0  0  0  0  0  0
   15.0326   -4.1763    0.0000 H   0  0  0  0  0  0  0  0  0  0  0  0
   14.4393   -3.6440    0.0000 H   0  0  0  0  0  0  0  0  0  0  0  0
    6.0084    3.9209    0.0000 H   0  0  0  0  0  0  0  0  0  0  0  0
    5.4151    4.4532    0.0000 H   0  0  0  0  0  0  0  0  0  0  0  0
   16.8183   -4.6202    0.0000 H   0  0  0  0  0  0  0  0  0  0  0  0
    4.7810    6.1805    0.0000 H   0  0  0  0  0  0  0  0  0  0  0  0
   16.8183   -7.4176    0.0000 H   0  0  0  0  0  0  0  0  0  0  0  0
    2.0000    5.8785    0.0000 H   0  0  0  0  0  0  0  0  0  0  0  0
   12.8264   -4.1448    0.0000 H   0  0  0  0  0  0  0  0  0  0  0  0
   13.4197   -4.6771    0.0000 H   0  0  0  0  0  0  0  0  0  0  0  0
    5.0914    2.7957    0.0000 H   0  0  0  0  0  0  0  0  0  0  0  0
    5.6847    2.2634    0.0000 H   0  0  0  0  0  0  0  0  0  0  0  0
   13.7434   -3.0196    0.0000 H   0  0  0  0  0  0  0  0  0  0  0  0
   13.1501   -2.4872    0.0000 H   0  0  0  0  0  0  0  0  0  0  0  0
    7.2976    2.7642    0.0000 H   0  0  0  0  0  0  0  0  0  0  0  0
    6.7043    3.2965    0.0000 H   0  0  0  0  0  0  0  0  0  0  0  0
   11.5373   -2.9880    0.0000 H   0  0  0  0  0  0  0  0  0  0  0  0
   12.1305   -3.5203    0.0000 H   0  0  0  0  0  0  0  0  0  0  0  0
    6.3806    1.6389    0.0000 H   0  0  0  0  0  0  0  0  0  0  0  0
    6.9738    1.1066    0.0000 H   0  0  0  0  0  0  0  0  0  0  0  0
   10.1372   -1.2549    0.0000 H   0  0  0  0  0  0  0  0  0  0  0  0
    8.9589   -0.6745    0.0000 H   0  0  0  0  0  0  0  0  0  0  0  0
    9.5522   -1.2069    0.0000 H   0  0  0  0  0  0  0  0  0  0  0  0
   11.6016   -0.5370    0.0000 H   0  0  0  0  0  0  0  0  0  0  0  0
   11.7660    0.2429    0.0000 H   0  0  0  0  0  0  0  0  0  0  0  0
    9.8759    0.4507    0.0000 H   0  0  0  0  0  0  0  0  0  0  0  0
    9.2826    0.9830    0.0000 H   0  0  0  0  0  0  0  0  0  0  0  0
   10.5259    1.3893    0.0000 H   0  0  0  0  0  0  0  0  0  0  0  0
   10.3615    0.6094    0.0000 H   0  0  0  0  0  0  0  0  0  0  0  0
   11.9588    1.1578    0.0000 H   0  0  0  0  0  0  0  0  0  0  0  0
   12.1232    1.9377    0.0000 H   0  0  0  0  0  0  0  0  0  0  0  0
   10.8830    3.0841    0.0000 H   0  0  0  0  0  0  0  0  0  0  0  0
   10.7187    2.3042    0.0000 H   0  0  0  0  0  0  0  0  0  0  0  0
   12.0368    4.7525    0.0000 H   0  0  0  0  0  0  0  0  0  0  0  0
  1 19  1  0  0  0  0
  1 21  1  0  0  0  0
  2 20  1  0  0  0  0
  2 22  1  0  0  0  0
  3 33  1  0  0  0  0
  3 35  1  0  0  0  0
  4 34  1  0  0  0  0
  4 38  1  0  0  0  0
  5 25  2  0  0  0  0
  6 26  2  0  0  0  0
  7 33  2  0  0  0  0
  8 34  2  0  0  0  0
  9 42  1  0  0  0  0
  9 86  1  0  0  0  0
 10 42  2  0  0  0  0
 11 15  1  0  0  0  0
 11 25  1  0  0  0  0
 11 57  1  0  0  0  0
 12 16  1  0  0  0  0
 12 26  1  0  0  0  0
 12 58  1  0  0  0  0
 13 17  1  0  0  0  0
 13 25  1  0  0  0  0
 13 59  1  0  0  0  0
 14 18  1  0  0  0  0
 14 26  1  0  0  0  0
 14 60  1  0  0  0  0
 15 17  1  0  0  0  0
 15 19  1  0  0  0  0
 15 43  1  0  0  0  0
 16 18  1  0  0  0  0
 16 20  1  0  0  0  0
 16 44  1  0  0  0  0
 17 21  1  0  0  0  0
 17 45  1  0  0  0  0
 18 22  1  0  0  0  0
 18 46  1  0  0  0  0
 19 23  1  0  0  0  0
 19 47  1  0  0  0  0
 20 24  1  0  0  0  0
 20 48  1  0  0  0  0
 21 49  1  0  0  0  0
 21 50  1  0  0  0  0
 22 51  1  0  0  0  0
 22 52  1  0  0  0  0
 23 27  1  0  0  0  0
 23 53  1  0  0  0  0
 23 54  1  0  0  0  0
 24 28  1  0  0  0  0
 24 55  1  0  0  0  0
 24 56  1  0  0  0  0
 27 29  1  0  0  0  0
 27 61  1  0  0  0  0
 27 62  1  0  0  0  0
 28 30  1  0  0  0  0
 28 63  1  0  0  0  0
 28 64  1  0  0  0  0
 29 31  1  0  0  0  0
 29 65  1  0  0  0  0
 29 66  1  0  0  0  0
 30 32  1  0  0  0  0
 30 67  1  0  0  0  0
 30 68  1  0  0  0  0
 31 33  1  0  0  0  0
 31 69  1  0  0  0  0
 31 70  1  0  0  0  0
 32 34  1  0  0  0  0
 32 71  1  0  0  0  0
 32 72  1  0  0  0  0
 35 36  1  0  0  0  0
 35 37  1  0  0  0  0
 35 73  1  0  0  0  0
 36 38  1  0  0  0  0
 36 74  1  0  0  0  0
 36 75  1  0  0  0  0
 37 39  1  0  0  0  0
 37 76  1  0  0  0  0
 37 77  1  0  0  0  0
 38 78  1  0  0  0  0
 38 79  1  0  0  0  0
 39 40  1  0  0  0  0
 39 80  1  0  0  0  0
 39 81  1  0  0  0  0
 40 41  1  0  0  0  0
 40 82  1  0  0  0  0
 40 83  1  0  0  0  0
 41 42  1  0  0  0  0
 41 84  1  0  0  0  0
 41 85  1  0  0  0  0
M  END
> <PUBCHEM_COMPOUND_CID>
25061726

> <PUBCHEM_COMPOUND_CANONICALIZED>
1

> <PUBCHEM_CACTVS_COMPLEXITY>
975

> <PUBCHEM_CACTVS_HBOND_ACCEPTOR>
10

> <PUBCHEM_CACTVS_HBOND_DONOR>
5

> <PUBCHEM_CACTVS_ROTATABLE_BOND>
21

> <PUBCHEM_CACTVS_SUBSKEYS>
AAADcfB7uABwAAAAAAAAAAAAAAAAAWLEiQAAAAAAAAAWLAAAAAAAHgQQCAAACCjFwASBCALAAggIAACQGAAAAAAAABAAAIEIAACAQBIggAAUQAAMFgIgAAGYyKCAAAAAAAAAAAAAAAAAAAAAAAAAAAAAAA==

> <PUBCHEM_IUPAC_OPENEYE_NAME>
6,8-bis[5-(2-oxo-1,3,3a,4,6,6a-hexahydrothieno[3,4-d]imidazol-4-yl)pentanoylsulfanyl]octanoic acid

> <PUBCHEM_IUPAC_CAS_NAME>
6,8-bis[[1-oxo-5-(2-oxo-1,3,3a,4,6,6a-hexahydrothieno[3,4-d]imidazol-4-yl)pentyl]thio]octanoic acid

> <PUBCHEM_IUPAC_NAME_MARKUP>
6,8-bis[5-(2-oxo-1,3,3<I>a</I>,4,6,6<I>a</I>-hexahydrothieno[3,4-d]imidazol-4-yl)pentanoylsulfanyl]octanoic acid

> <PUBCHEM_IUPAC_NAME>
6,8-bis[5-(2-oxo-1,3,3a,4,6,6a-hexahydrothieno[3,4-d]imidazol-4-yl)pentanoylsulfanyl]octanoic acid

> <PUBCHEM_IUPAC_SYSTEMATIC_NAME>
6,8-bis[5-(2-oxidanylidene-1,3,3a,4,6,6a-hexahydrothieno[3,4-d]imidazol-4-yl)pentanoylsulfanyl]octanoic acid

> <PUBCHEM_IUPAC_TRADITIONAL_NAME>
6,8-bis[5-(2-keto-1,3,3a,4,6,6a-hexahydrothien[3,4-d]imidazol-4-yl)pentanoylthio]caprylic acid

> <PUBCHEM_IUPAC_INCHI>
InChI=1S/C28H44N4O6S4/c33-22(34)10-4-1-7-17(42-24(36)12-6-3-9-21-26-19(16-41-21)30-28(38)32-26)13-14-39-23(35)11-5-2-8-20-25-18(15-40-20)29-27(37)31-25/h17-21,25-26H,1-16H2,(H,33,34)(H2,29,31,37)(H2,30,32,38)

> <PUBCHEM_IUPAC_INCHIKEY>
XEJFUOFJXIQASQ-UHFFFAOYSA-N

> <PUBCHEM_XLOGP3_AA>
3.2

> <PUBCHEM_EXACT_MASS>
660.21436983

> <PUBCHEM_MOLECULAR_FORMULA>
C28H44N4O6S4

> <PUBCHEM_MOLECULAR_WEIGHT>
660.9

> <PUBCHEM_OPENEYE_CAN_SMILES>
C1C2C(C(S1)CCCCC(=O)SCCC(CCCCC(=O)O)SC(=O)CCCCC3C4C(CS3)NC(=O)N4)NC(=O)N2

> <PUBCHEM_OPENEYE_ISO_SMILES>
C1C2C(C(S1)CCCCC(=O)SCCC(CCCCC(=O)O)SC(=O)CCCCC3C4C(CS3)NC(=O)N4)NC(=O)N2

> <PUBCHEM_CACTVS_TPSA>
255

> <PUBCHEM_MONOISOTOPIC_WEIGHT>
660.21436983

> <PUBCHEM_TOTAL_CHARGE>
0

> <PUBCHEM_HEAVY_ATOM_COUNT>
42

> <PUBCHEM_ATOM_DEF_STEREO_COUNT>
0

> <PUBCHEM_ATOM_UDEF_STEREO_COUNT>
7

> <PUBCHEM_BOND_DEF_STEREO_COUNT>
0

> <PUBCHEM_BOND_UDEF_STEREO_COUNT>
0

> <PUBCHEM_ISOTOPIC_ATOM_COUNT>
0

> <PUBCHEM_COMPONENT_COUNT>
1

> <PUBCHEM_CACTVS_TAUTO_COUNT>
-1

> <PUBCHEM_COORDINATE_TYPE>
1
5
255

> <PUBCHEM_BONDANNOTATIONS>
15  11  3
16  12  3
17  21  3
18  22  3
19  23  3
20  24  3
35  37  3

$$$$
