 
  -OEChem-10192104082D

 59 62  0     1  0  0  0  0  0999 V2000
    5.7175    2.6458    0.0000 O   0  0  0  0  0  0  0  0  0  0  0  0
    9.0144    1.0935    0.0000 O   0  0  0  0  0  0  0  0  0  0  0  0
    8.9804    4.1853    0.0000 O   0  0  0  0  0  0  0  0  0  0  0  0
    7.1962    0.3147    0.0000 O   0  0  0  0  0  0  0  0  0  0  0  0
    5.4641    0.3147    0.0000 O   0  0  0  0  0  0  0  0  0  0  0  0
    7.1962   -1.6853    0.0000 O   0  0  0  0  0  0  0  0  0  0  0  0
    5.4641   -2.6853    0.0000 O   0  0  0  0  0  0  0  0  0  0  0  0
    3.7320   -1.6853    0.0000 O   0  0  0  0  0  0  0  0  0  0  0  0
    3.7320    1.3147    0.0000 O   0  0  0  0  0  0  0  0  0  0  0  0
    6.3301   -3.1853    0.0000 O   0  0  0  0  0  0  0  0  0  0  0  0
    3.7320   -2.6853    0.0000 O   0  0  0  0  0  0  0  0  0  0  0  0
    2.8660   -0.1853    0.0000 O   0  0  0  0  0  0  0  0  0  0  0  0
    2.0000    1.3147    0.0000 O   0  0  0  0  0  0  0  0  0  0  0  0
    6.3871    1.9025    0.0000 C   0  0  3  0  0  0  0  0  0  0  0  0
    6.6962    2.8535    0.0000 C   0  0  2  0  0  0  0  0  0  0  0  0
    7.1962    1.3147    0.0000 C   0  0  1  0  0  0  0  0  0  0  0  0
    8.9899    2.3213    0.0000 C   0  0  3  0  0  0  0  0  0  0  0  0
    8.1913    2.9231    0.0000 C   0  0  1  0  0  0  0  0  0  0  0  0
    9.7790    3.5835    0.0000 C   0  0  0  0  0  0  0  0  0  0  0  0
    6.3301   -0.1853    0.0000 C   0  0  2  0  0  0  0  0  0  0  0  0
    6.3301   -1.1853    0.0000 C   0  0  2  0  0  0  0  0  0  0  0  0
    5.4641   -1.6853    0.0000 C   0  0  3  0  0  0  0  0  0  0  0  0
    4.5981   -1.1853    0.0000 C   0  0  1  0  0  0  0  0  0  0  0  0
    4.5981   -0.1853    0.0000 C   0  0  3  0  0  0  0  0  0  0  0  0
    3.7320    0.3147    0.0000 C   0  0  0  0  0  0  0  0  0  0  0  0
    7.1962   -2.6853    0.0000 C   0  0  0  0  0  0  0  0  0  0  0  0
    4.5981   -3.1853    0.0000 C   0  0  0  0  0  0  0  0  0  0  0  0
    2.8660   -1.1853    0.0000 C   0  0  0  0  0  0  0  0  0  0  0  0
    8.0622   -3.1853    0.0000 C   0  0  0  0  0  0  0  0  0  0  0  0
    4.5981   -4.1853    0.0000 C   0  0  0  0  0  0  0  0  0  0  0  0
    2.8660    1.8147    0.0000 C   0  0  0  0  0  0  0  0  0  0  0  0
    2.0000   -1.6853    0.0000 C   0  0  0  0  0  0  0  0  0  0  0  0
    2.8660    2.8147    0.0000 C   0  0  0  0  0  0  0  0  0  0  0  0
    5.9723    1.4417    0.0000 H   0  0  0  0  0  0  0  0  0  0  0  0
    6.8877    3.4432    0.0000 H   0  0  0  0  0  0  0  0  0  0  0  0
    6.6437    1.0332    0.0000 H   0  0  0  0  0  0  0  0  0  0  0  0
    9.5876    2.1563    0.0000 H   0  0  0  0  0  0  0  0  0  0  0  0
    7.5124    3.4346    0.0000 H   0  0  0  0  0  0  0  0  0  0  0  0
   10.2950    3.2397    0.0000 H   0  0  0  0  0  0  0  0  0  0  0  0
   10.1376    4.0893    0.0000 H   0  0  0  0  0  0  0  0  0  0  0  0
    6.3301    0.4347    0.0000 H   0  0  0  0  0  0  0  0  0  0  0  0
    6.3301   -1.8053    0.0000 H   0  0  0  0  0  0  0  0  0  0  0  0
    4.9272   -1.9953    0.0000 H   0  0  0  0  0  0  0  0  0  0  0  0
    4.5981   -1.8053    0.0000 H   0  0  0  0  0  0  0  0  0  0  0  0
    4.5981    0.4347    0.0000 H   0  0  0  0  0  0  0  0  0  0  0  0
    3.1215    0.4223    0.0000 H   0  0  0  0  0  0  0  0  0  0  0  0
    3.5200   -0.2679    0.0000 H   0  0  0  0  0  0  0  0  0  0  0  0
    7.7522   -3.7223    0.0000 H   0  0  0  0  0  0  0  0  0  0  0  0
    8.5991   -3.4953    0.0000 H   0  0  0  0  0  0  0  0  0  0  0  0
    8.3722   -2.6484    0.0000 H   0  0  0  0  0  0  0  0  0  0  0  0
    3.9781   -4.1853    0.0000 H   0  0  0  0  0  0  0  0  0  0  0  0
    4.5981   -4.8053    0.0000 H   0  0  0  0  0  0  0  0  0  0  0  0
    5.2181   -4.1853    0.0000 H   0  0  0  0  0  0  0  0  0  0  0  0
    1.6900   -1.1484    0.0000 H   0  0  0  0  0  0  0  0  0  0  0  0
    1.4631   -1.9953    0.0000 H   0  0  0  0  0  0  0  0  0  0  0  0
    2.3100   -2.2223    0.0000 H   0  0  0  0  0  0  0  0  0  0  0  0
    3.4860    2.8147    0.0000 H   0  0  0  0  0  0  0  0  0  0  0  0
    2.8660    3.4347    0.0000 H   0  0  0  0  0  0  0  0  0  0  0  0
    2.2460    2.8147    0.0000 H   0  0  0  0  0  0  0  0  0  0  0  0
  1 14  1  0  0  0  0
 15  1  1  1  0  0  0
  2 17  1  0  0  0  0
  2 18  1  0  0  0  0
  3 18  1  0  0  0  0
  3 19  1  0  0  0  0
 16  4  1  1  0  0  0
 20  4  1  1  0  0  0
  5 20  1  0  0  0  0
  5 24  1  0  0  0  0
 21  6  1  1  0  0  0
  6 26  1  0  0  0  0
  7 22  1  0  0  0  0
  7 27  1  0  0  0  0
 23  8  1  6  0  0  0
  8 28  1  0  0  0  0
  9 25  1  0  0  0  0
  9 31  1  0  0  0  0
 10 26  2  0  0  0  0
 11 27  2  0  0  0  0
 12 28  2  0  0  0  0
 13 31  2  0  0  0  0
 14 15  1  0  0  0  0
 14 16  1  0  0  0  0
 14 34  1  0  0  0  0
 15 18  1  0  0  0  0
 15 35  1  0  0  0  0
 16 17  1  0  0  0  0
 16 36  1  0  0  0  0
 17 19  1  0  0  0  0
 17 37  1  0  0  0  0
 18 38  1  1  0  0  0
 19 39  1  0  0  0  0
 19 40  1  0  0  0  0
 20 21  1  0  0  0  0
 20 41  1  0  0  0  0
 21 22  1  0  0  0  0
 21 42  1  0  0  0  0
 22 23  1  0  0  0  0
 22 43  1  0  0  0  0
 23 24  1  0  0  0  0
 23 44  1  0  0  0  0
 24 25  1  0  0  0  0
 24 45  1  0  0  0  0
 25 46  1  0  0  0  0
 25 47  1  0  0  0  0
 26 29  1  0  0  0  0
 27 30  1  0  0  0  0
 28 32  1  0  0  0  0
 29 48  1  0  0  0  0
 29 49  1  0  0  0  0
 29 50  1  0  0  0  0
 30 51  1  0  0  0  0
 30 52  1  0  0  0  0
 30 53  1  0  0  0  0
 31 33  1  0  0  0  0
 32 54  1  0  0  0  0
 32 55  1  0  0  0  0
 32 56  1  0  0  0  0
 33 57  1  0  0  0  0
 33 58  1  0  0  0  0
 33 59  1  0  0  0  0
M  END
> <PUBCHEM_COMPOUND_CID>
118087855

> <PUBCHEM_COMPOUND_CANONICALIZED>
1

> <PUBCHEM_CACTVS_COMPLEXITY>
799

> <PUBCHEM_CACTVS_HBOND_ACCEPTOR>
13

> <PUBCHEM_CACTVS_HBOND_DONOR>
0

> <PUBCHEM_CACTVS_ROTATABLE_BOND>
11

> <PUBCHEM_CACTVS_SUBSKEYS>
AAADceB4PAAAAAAAAAAAAAAAEgAAASAAAAAkSAAABIkAAAAAAAAAGgAAAAAACBSwgAMCCAAABAAIAACQCAAAAAAAAAAAAAAAAAARAAIAAAAiAAAFAAAGAAHAYAwAAAAAAAAAAAAAAAAAAAAAAAAAAAAAAA==

> <PUBCHEM_IUPAC_OPENEYE_NAME>
[(3R,5S,6S)-3,4,5-triacetoxy-6-[[(1R,2R,5R)-3,8,9-trioxatricyclo[4.2.1.02,4]nonan-5-yl]oxy]tetrahydropyran-2-yl]methyl acetate

> <PUBCHEM_IUPAC_CAS_NAME>
acetic acid [(3R,5S,6S)-3,4,5-triacetyloxy-6-[[(1R,2R,5R)-3,8,9-trioxatricyclo[4.2.1.02,4]nonan-5-yl]oxy]-2-oxanyl]methyl ester

> <PUBCHEM_IUPAC_NAME_MARKUP>
[(3<I>R</I>,5<I>S</I>,6<I>S</I>)-3,4,5-triacetyloxy-6-[[(1<I>R</I>,2<I>R</I>,5<I>R</I>)-3,8,9-trioxatricyclo[4.2.1.0<SUP>2,4</SUP>]nonan-5-yl]oxy]oxan-2-yl]methyl acetate

> <PUBCHEM_IUPAC_NAME>
[(3R,5S,6S)-3,4,5-triacetyloxy-6-[[(1R,2R,5R)-3,8,9-trioxatricyclo[4.2.1.02,4]nonan-5-yl]oxy]oxan-2-yl]methyl acetate

> <PUBCHEM_IUPAC_SYSTEMATIC_NAME>
[(3R,5S,6S)-3,4,5-triacetyloxy-6-[[(1R,2R,5R)-3,8,9-trioxatricyclo[4.2.1.02,4]nonan-5-yl]oxy]oxan-2-yl]methyl ethanoate

> <PUBCHEM_IUPAC_TRADITIONAL_NAME>
acetic acid [(3R,5S,6S)-3,4,5-triacetoxy-6-[[(1R,2R,5R)-3,8,9-trioxatricyclo[4.2.1.02,4]nonan-5-yl]oxy]tetrahydropyran-2-yl]methyl ester

> <PUBCHEM_IUPAC_INCHI>
InChI=1S/C20H26O13/c1-7(21)25-5-11-13(27-8(2)22)15(28-9(3)23)18(29-10(4)24)20(31-11)33-14-12-6-26-19(30-12)17-16(14)32-17/h11-20H,5-6H2,1-4H3/t11?,12?,13-,14-,15?,16?,17-,18+,19-,20+/m1/s1

> <PUBCHEM_IUPAC_INCHIKEY>
PNZBAMGMKHKURD-GUYYIUHBSA-N

> <PUBCHEM_XLOGP3_AA>
-1

> <PUBCHEM_EXACT_MASS>
474.13734088

> <PUBCHEM_MOLECULAR_FORMULA>
C20H26O13

> <PUBCHEM_MOLECULAR_WEIGHT>
474.4

> <PUBCHEM_OPENEYE_CAN_SMILES>
CC(=O)OCC1C(C(C(C(O1)OC2C3COC(O3)C4C2O4)OC(=O)C)OC(=O)C)OC(=O)C

> <PUBCHEM_OPENEYE_ISO_SMILES>
CC(=O)OCC1[C@H](C([C@@H]([C@@H](O1)O[C@@H]2C3CO[C@H](O3)[C@H]4C2O4)OC(=O)C)OC(=O)C)OC(=O)C

> <PUBCHEM_CACTVS_TPSA>
155

> <PUBCHEM_MONOISOTOPIC_WEIGHT>
474.13734088

> <PUBCHEM_TOTAL_CHARGE>
0

> <PUBCHEM_HEAVY_ATOM_COUNT>
33

> <PUBCHEM_ATOM_DEF_STEREO_COUNT>
6

> <PUBCHEM_ATOM_UDEF_STEREO_COUNT>
4

> <PUBCHEM_BOND_DEF_STEREO_COUNT>
0

> <PUBCHEM_BOND_UDEF_STEREO_COUNT>
0

> <PUBCHEM_ISOTOPIC_ATOM_COUNT>
0

> <PUBCHEM_COMPONENT_COUNT>
1

> <PUBCHEM_CACTVS_TAUTO_COUNT>
-1

> <PUBCHEM_COORDINATE_TYPE>
1
5
255

> <PUBCHEM_BONDANNOTATIONS>
14  1  3
15  1  5
17  19  3
18  38  5
24  25  3
16  4  5
20  4  5
21  6  5
22  7  3
23  8  6

$$$$
