 
  -OEChem-10192103302D

 82 83  0     1  0  0  0  0  0999 V2000
    8.0622   -0.5000    0.0000 O   0  0  0  0  0  0  0  0  0  0  0  0
    6.3301   -0.5000    0.0000 O   0  0  0  0  0  0  0  0  0  0  0  0
    7.1962    2.0000    0.0000 O   0  0  0  0  0  0  0  0  0  0  0  0
    8.0622   -2.5000    0.0000 O   0  0  0  0  0  0  0  0  0  0  0  0
    6.3301   -3.5000    0.0000 O   0  0  0  0  0  0  0  0  0  0  0  0
    4.5981   -2.5000    0.0000 O   0  0  0  0  0  0  0  0  0  0  0  0
    9.7942    0.5000    0.0000 O   0  0  0  0  0  0  0  0  0  0  0  0
    9.7942    2.5000    0.0000 O   0  0  0  0  0  0  0  0  0  0  0  0
    6.3301    0.5000    0.0000 O   0  0  0  0  0  0  0  0  0  0  0  0
    8.0622    3.5000    0.0000 O   0  0  0  0  0  0  0  0  0  0  0  0
    3.7320   -1.0000    0.0000 O   0  0  0  0  0  0  0  0  0  0  0  0
    7.1962   -4.0000    0.0000 O   0  0  0  0  0  0  0  0  0  0  0  0
    4.5981   -3.5000    0.0000 O   0  0  0  0  0  0  0  0  0  0  0  0
    2.9705   -1.9076    0.0000 O   0  0  0  0  0  0  0  0  0  0  0  0
   10.6603    2.0000    0.0000 O   0  0  0  0  0  0  0  0  0  0  0  0
    8.9282    4.0000    0.0000 O   0  0  0  0  0  0  0  0  0  0  0  0
    4.5981    0.5000    0.0000 O   0  0  0  0  0  0  0  0  0  0  0  0
    6.3301    3.5000    0.0000 O   0  0  0  0  0  0  0  0  0  0  0  0
    2.8660    0.5000    0.0000 O   0  0  0  0  0  0  0  0  0  0  0  0
    7.1962   -2.0000    0.0000 C   0  0  2  0  0  0  0  0  0  0  0  0
    6.3301   -2.5000    0.0000 C   0  0  2  0  0  0  0  0  0  0  0  0
    7.1962   -1.0000    0.0000 C   0  0  2  0  0  0  0  0  0  0  0  0
    5.4641   -2.0000    0.0000 C   0  0  1  0  0  0  0  0  0  0  0  0
    8.0622    0.5000    0.0000 C   0  0  1  0  0  0  0  0  0  0  0  0
    5.4641   -1.0000    0.0000 C   0  0  1  0  0  0  0  0  0  0  0  0
    8.9282    1.0000    0.0000 C   0  0  1  0  0  0  0  0  0  0  0  0
    8.9282    2.0000    0.0000 C   0  0  2  0  0  0  0  0  0  0  0  0
    7.1962    1.0000    0.0000 C   0  0  2  0  0  0  0  0  0  0  0  0
    8.0622    2.5000    0.0000 C   0  0  1  0  0  0  0  0  0  0  0  0
    4.5981   -0.5000    0.0000 C   0  0  0  0  0  0  0  0  0  0  0  0
    8.0622   -3.5000    0.0000 C   0  0  0  0  0  0  0  0  0  0  0  0
    5.4641   -4.0000    0.0000 C   0  0  0  0  0  0  0  0  0  0  0  0
    3.6133   -2.6736    0.0000 C   0  0  0  0  0  0  0  0  0  0  0  0
   10.6603    1.0000    0.0000 C   0  0  0  0  0  0  0  0  0  0  0  0
    9.7942    3.5000    0.0000 C   0  0  0  0  0  0  0  0  0  0  0  0
    5.4641    1.0000    0.0000 C   0  0  0  0  0  0  0  0  0  0  0  0
    7.1962    4.0000    0.0000 C   0  0  0  0  0  0  0  0  0  0  0  0
    8.9282   -4.0000    0.0000 C   0  0  0  0  0  0  0  0  0  0  0  0
    5.4641   -5.0000    0.0000 C   0  0  0  0  0  0  0  0  0  0  0  0
    3.2712   -3.6133    0.0000 C   0  0  0  0  0  0  0  0  0  0  0  0
    2.8660   -0.5000    0.0000 C   0  0  0  0  0  0  0  0  0  0  0  0
   11.5263    0.5000    0.0000 C   0  0  0  0  0  0  0  0  0  0  0  0
   10.6603    4.0000    0.0000 C   0  0  0  0  0  0  0  0  0  0  0  0
    5.4641    2.0000    0.0000 C   0  0  0  0  0  0  0  0  0  0  0  0
    7.1962    5.0000    0.0000 C   0  0  0  0  0  0  0  0  0  0  0  0
    2.0000   -1.0000    0.0000 C   0  0  0  0  0  0  0  0  0  0  0  0
    7.1962   -2.6200    0.0000 H   0  0  0  0  0  0  0  0  0  0  0  0
    5.7932   -2.8100    0.0000 H   0  0  0  0  0  0  0  0  0  0  0  0
    7.7331   -1.3100    0.0000 H   0  0  0  0  0  0  0  0  0  0  0  0
    5.4641   -2.6200    0.0000 H   0  0  0  0  0  0  0  0  0  0  0  0
    7.5252    0.1900    0.0000 H   0  0  0  0  0  0  0  0  0  0  0  0
    5.4641   -0.3800    0.0000 H   0  0  0  0  0  0  0  0  0  0  0  0
    8.9282    0.3800    0.0000 H   0  0  0  0  0  0  0  0  0  0  0  0
    9.4651    1.6900    0.0000 H   0  0  0  0  0  0  0  0  0  0  0  0
    6.6592    1.3100    0.0000 H   0  0  0  0  0  0  0  0  0  0  0  0
    7.5252    2.8100    0.0000 H   0  0  0  0  0  0  0  0  0  0  0  0
    4.9966   -0.0251    0.0000 H   0  0  0  0  0  0  0  0  0  0  0  0
    4.1996   -0.0251    0.0000 H   0  0  0  0  0  0  0  0  0  0  0  0
    8.6182   -4.5369    0.0000 H   0  0  0  0  0  0  0  0  0  0  0  0
    9.4651   -4.3100    0.0000 H   0  0  0  0  0  0  0  0  0  0  0  0
    9.2382   -3.4631    0.0000 H   0  0  0  0  0  0  0  0  0  0  0  0
    4.8441   -5.0000    0.0000 H   0  0  0  0  0  0  0  0  0  0  0  0
    5.4641   -5.6200    0.0000 H   0  0  0  0  0  0  0  0  0  0  0  0
    6.0841   -5.0000    0.0000 H   0  0  0  0  0  0  0  0  0  0  0  0
    2.6886   -3.4012    0.0000 H   0  0  0  0  0  0  0  0  0  0  0  0
    3.0591   -4.1959    0.0000 H   0  0  0  0  0  0  0  0  0  0  0  0
    3.8538   -3.8254    0.0000 H   0  0  0  0  0  0  0  0  0  0  0  0
   11.2163   -0.0369    0.0000 H   0  0  0  0  0  0  0  0  0  0  0  0
   12.0632    0.1900    0.0000 H   0  0  0  0  0  0  0  0  0  0  0  0
   11.8363    1.0369    0.0000 H   0  0  0  0  0  0  0  0  0  0  0  0
   10.9703    3.4631    0.0000 H   0  0  0  0  0  0  0  0  0  0  0  0
   11.1972    4.3100    0.0000 H   0  0  0  0  0  0  0  0  0  0  0  0
   10.3503    4.5369    0.0000 H   0  0  0  0  0  0  0  0  0  0  0  0
    6.0841    2.0000    0.0000 H   0  0  0  0  0  0  0  0  0  0  0  0
    5.4641    2.6200    0.0000 H   0  0  0  0  0  0  0  0  0  0  0  0
    4.8441    2.0000    0.0000 H   0  0  0  0  0  0  0  0  0  0  0  0
    7.8162    5.0000    0.0000 H   0  0  0  0  0  0  0  0  0  0  0  0
    7.1962    5.6200    0.0000 H   0  0  0  0  0  0  0  0  0  0  0  0
    6.5762    5.0000    0.0000 H   0  0  0  0  0  0  0  0  0  0  0  0
    1.6900   -0.4631    0.0000 H   0  0  0  0  0  0  0  0  0  0  0  0
    1.4631   -1.3100    0.0000 H   0  0  0  0  0  0  0  0  0  0  0  0
    2.3100   -1.5369    0.0000 H   0  0  0  0  0  0  0  0  0  0  0  0
 22  1  1  1  0  0  0
 24  1  1  6  0  0  0
  2 22  1  0  0  0  0
  2 25  1  0  0  0  0
  3 28  1  0  0  0  0
  3 29  1  0  0  0  0
 20  4  1  6  0  0  0
  4 31  1  0  0  0  0
 21  5  1  1  0  0  0
  5 32  1  0  0  0  0
 23  6  1  6  0  0  0
  6 33  1  0  0  0  0
 26  7  1  1  0  0  0
  7 34  1  0  0  0  0
 27  8  1  6  0  0  0
  8 35  1  0  0  0  0
 28  9  1  1  0  0  0
  9 36  1  0  0  0  0
 29 10  1  1  0  0  0
 10 37  1  0  0  0  0
 11 30  1  0  0  0  0
 11 41  1  0  0  0  0
 12 31  2  0  0  0  0
 13 32  2  0  0  0  0
 14 33  2  0  0  0  0
 15 34  2  0  0  0  0
 16 35  2  0  0  0  0
 17 36  2  0  0  0  0
 18 37  2  0  0  0  0
 19 41  2  0  0  0  0
 20 21  1  0  0  0  0
 20 22  1  0  0  0  0
 20 47  1  0  0  0  0
 21 23  1  0  0  0  0
 21 48  1  0  0  0  0
 22 49  1  0  0  0  0
 23 25  1  0  0  0  0
 23 50  1  0  0  0  0
 24 26  1  0  0  0  0
 24 28  1  0  0  0  0
 24 51  1  0  0  0  0
 25 30  1  1  0  0  0
 25 52  1  0  0  0  0
 26 27  1  0  0  0  0
 26 53  1  0  0  0  0
 27 29  1  0  0  0  0
 27 54  1  0  0  0  0
 28 55  1  0  0  0  0
 29 56  1  0  0  0  0
 30 57  1  0  0  0  0
 30 58  1  0  0  0  0
 31 38  1  0  0  0  0
 32 39  1  0  0  0  0
 33 40  1  0  0  0  0
 34 42  1  0  0  0  0
 35 43  1  0  0  0  0
 36 44  1  0  0  0  0
 37 45  1  0  0  0  0
 38 59  1  0  0  0  0
 38 60  1  0  0  0  0
 38 61  1  0  0  0  0
 39 62  1  0  0  0  0
 39 63  1  0  0  0  0
 39 64  1  0  0  0  0
 40 65  1  0  0  0  0
 40 66  1  0  0  0  0
 40 67  1  0  0  0  0
 41 46  1  0  0  0  0
 42 68  1  0  0  0  0
 42 69  1  0  0  0  0
 42 70  1  0  0  0  0
 43 71  1  0  0  0  0
 43 72  1  0  0  0  0
 43 73  1  0  0  0  0
 44 74  1  0  0  0  0
 44 75  1  0  0  0  0
 44 76  1  0  0  0  0
 45 77  1  0  0  0  0
 45 78  1  0  0  0  0
 45 79  1  0  0  0  0
 46 80  1  0  0  0  0
 46 81  1  0  0  0  0
 46 82  1  0  0  0  0
M  END
> <PUBCHEM_COMPOUND_CID>
9831138

> <PUBCHEM_COMPOUND_CANONICALIZED>
1

> <PUBCHEM_CACTVS_COMPLEXITY>
1180

> <PUBCHEM_CACTVS_HBOND_ACCEPTOR>
19

> <PUBCHEM_CACTVS_HBOND_DONOR>
0

> <PUBCHEM_CACTVS_ROTATABLE_BOND>
19

> <PUBCHEM_CACTVS_SUBSKEYS>
AAADcfB4PgAAAAAAAAAAAAAAAAAAAAAAAAAkSAAAAAAAAAAAAAAAGgAAAAAACBSwgAMCCAAABAAIAACQCAAAAAAAAAAAAAAAAAARAAIAAAAiAAAFAAAGAAHAYAwAAAAAAAAAAAAAAAAAAAAAAAAAAAAAAA==

> <PUBCHEM_IUPAC_OPENEYE_NAME>
[(2R,3R,4S,5R,6S)-3,4,5-triacetoxy-6-[(2R,3S,4S,5R,6S)-2,4,5,6-tetraacetoxytetrahydropyran-3-yl]oxy-tetrahydropyran-2-yl]methyl acetate

> <PUBCHEM_IUPAC_CAS_NAME>
acetic acid [(2R,3R,4S,5R,6S)-3,4,5-triacetyloxy-6-[[(2R,3S,4S,5R,6S)-2,4,5,6-tetraacetyloxy-3-oxanyl]oxy]-2-oxanyl]methyl ester

> <PUBCHEM_IUPAC_NAME_MARKUP>
[(2<I>R</I>,3<I>R</I>,4<I>S</I>,5<I>R</I>,6<I>S</I>)-3,4,5-triacetyloxy-6-[(2<I>R</I>,3<I>S</I>,4<I>S</I>,5<I>R</I>,6<I>S</I>)-2,4,5,6-tetraacetyloxyoxan-3-yl]oxyoxan-2-yl]methyl acetate

> <PUBCHEM_IUPAC_NAME>
[(2R,3R,4S,5R,6S)-3,4,5-triacetyloxy-6-[(2R,3S,4S,5R,6S)-2,4,5,6-tetraacetyloxyoxan-3-yl]oxyoxan-2-yl]methyl acetate

> <PUBCHEM_IUPAC_SYSTEMATIC_NAME>
[(2R,3R,4S,5R,6S)-3,4,5-triacetyloxy-6-[(2R,3S,4S,5R,6S)-2,4,5,6-tetraacetyloxyoxan-3-yl]oxy-oxan-2-yl]methyl ethanoate

> <PUBCHEM_IUPAC_TRADITIONAL_NAME>
acetic acid [(2R,3R,4S,5R,6S)-3,4,5-triacetoxy-6-[(2R,3S,4S,5R,6S)-2,4,5,6-tetraacetoxytetrahydropyran-3-yl]oxy-tetrahydropyran-2-yl]methyl ester

> <PUBCHEM_IUPAC_INCHI>
InChI=1S/C27H36O19/c1-10(28)36-9-18-19(37-11(2)29)20(38-12(3)30)22(40-14(5)32)27(44-18)45-24-21(39-13(4)31)23(41-15(6)33)25(42-16(7)34)46-26(24)43-17(8)35/h18-27H,9H2,1-8H3/t18-,19-,20+,21-,22-,23-,24+,25-,26+,27+/m1/s1

> <PUBCHEM_IUPAC_INCHIKEY>
DUOWOYBKKWIIMC-VXNVYFKFSA-N

> <PUBCHEM_XLOGP3>
0.3

> <PUBCHEM_EXACT_MASS>
664.18507891

> <PUBCHEM_MOLECULAR_FORMULA>
C27H36O19

> <PUBCHEM_MOLECULAR_WEIGHT>
664.6

> <PUBCHEM_OPENEYE_CAN_SMILES>
CC(=O)OCC1C(C(C(C(O1)OC2C(C(C(OC2OC(=O)C)OC(=O)C)OC(=O)C)OC(=O)C)OC(=O)C)OC(=O)C)OC(=O)C

> <PUBCHEM_OPENEYE_ISO_SMILES>
CC(=O)OC[C@@H]1[C@H]([C@@H]([C@H]([C@@H](O1)O[C@H]2[C@@H]([C@H]([C@@H](O[C@@H]2OC(=O)C)OC(=O)C)OC(=O)C)OC(=O)C)OC(=O)C)OC(=O)C)OC(=O)C

> <PUBCHEM_CACTVS_TPSA>
238

> <PUBCHEM_MONOISOTOPIC_WEIGHT>
664.18507891

> <PUBCHEM_TOTAL_CHARGE>
0

> <PUBCHEM_HEAVY_ATOM_COUNT>
46

> <PUBCHEM_ATOM_DEF_STEREO_COUNT>
10

> <PUBCHEM_ATOM_UDEF_STEREO_COUNT>
0

> <PUBCHEM_BOND_DEF_STEREO_COUNT>
0

> <PUBCHEM_BOND_UDEF_STEREO_COUNT>
0

> <PUBCHEM_ISOTOPIC_ATOM_COUNT>
0

> <PUBCHEM_COMPONENT_COUNT>
1

> <PUBCHEM_CACTVS_TAUTO_COUNT>
-1

> <PUBCHEM_COORDINATE_TYPE>
1
5
255

> <PUBCHEM_BONDANNOTATIONS>
22  1  5
24  1  6
29  10  5
25  30  5
20  4  6
21  5  5
23  6  6
26  7  5
27  8  6
28  9  5

$$$$
