 
  -OEChem-10192103452D

 54 54  0     1  0  0  0  0  0999 V2000
    8.1906    1.5436    0.0000 O   0  0  0  0  0  0  0  0  0  0  0  0
    8.1906    3.2757    0.0000 O   0  0  0  0  0  0  0  0  0  0  0  0
    4.8966   -3.5646    0.0000 O   0  0  0  0  0  0  0  0  0  0  0  0
    6.2507   -2.4847    0.0000 O   0  0  0  0  0  0  0  0  0  0  0  0
    6.6906    0.6776    0.0000 O   0  0  0  0  0  0  0  0  0  0  0  0
    6.6906    4.1417    0.0000 O   0  0  0  0  0  0  0  0  0  0  0  0
    3.2842   -2.9318    0.0000 O   0  0  0  0  0  0  0  0  0  0  0  0
    5.9926   -0.7720    0.0000 O   0  0  0  0  0  0  0  0  0  0  0  0
    4.1906    1.5436    0.0000 C   0  0  3  0  0  0  0  0  0  0  0  0
    3.7568    0.6427    0.0000 C   0  0  3  0  0  0  0  0  0  0  0  0
    3.7568    2.4446    0.0000 C   0  0  0  0  0  0  0  0  0  0  0  0
    2.7818    2.6671    0.0000 C   0  0  3  0  0  0  0  0  0  0  0  0
    2.7818    0.4201    0.0000 C   0  0  0  0  0  0  0  0  0  0  0  0
    5.1906    1.5436    0.0000 C   0  0  0  0  0  0  0  0  0  0  0  0
    2.0000    2.0436    0.0000 C   0  0  0  0  0  0  0  0  0  0  0  0
    2.0000    1.0436    0.0000 C   0  0  0  0  0  0  0  0  0  0  0  0
    4.3802   -0.1392    0.0000 C   0  0  0  0  0  0  0  0  0  0  0  0
    5.6906    2.4097    0.0000 C   0  0  0  0  0  0  0  0  0  0  0  0
    4.0149   -1.0700    0.0000 C   0  0  0  0  0  0  0  0  0  0  0  0
    2.5593    3.6421    0.0000 C   0  0  0  0  0  0  0  0  0  0  0  0
    6.6906    2.4097    0.0000 C   0  0  0  0  0  0  0  0  0  0  0  0
    4.6384   -1.8519    0.0000 C   0  0  0  0  0  0  0  0  0  0  0  0
    7.1906    1.5436    0.0000 C   0  0  0  0  0  0  0  0  0  0  0  0
    7.1906    3.2757    0.0000 C   0  0  0  0  0  0  0  0  0  0  0  0
    4.2731   -2.7827    0.0000 C   0  0  0  0  0  0  0  0  0  0  0  0
    5.6272   -1.7028    0.0000 C   0  0  0  0  0  0  0  0  0  0  0  0
    4.5205    1.0187    0.0000 H   0  0  0  0  0  0  0  0  0  0  0  0
    3.5520    0.0575    0.0000 H   0  0  0  0  0  0  0  0  0  0  0  0
    4.3612    2.5826    0.0000 H   0  0  0  0  0  0  0  0  0  0  0  0
    3.7568    3.0646    0.0000 H   0  0  0  0  0  0  0  0  0  0  0  0
    3.2202    3.1055    0.0000 H   0  0  0  0  0  0  0  0  0  0  0  0
    2.2971    0.0336    0.0000 H   0  0  0  0  0  0  0  0  0  0  0  0
    3.0508   -0.1385    0.0000 H   0  0  0  0  0  0  0  0  0  0  0  0
    5.0830    0.9331    0.0000 H   0  0  0  0  0  0  0  0  0  0  0  0
    5.7732    1.3316    0.0000 H   0  0  0  0  0  0  0  0  0  0  0  0
    1.7310    2.6022    0.0000 H   0  0  0  0  0  0  0  0  0  0  0  0
    1.3955    1.9057    0.0000 H   0  0  0  0  0  0  0  0  0  0  0  0
    1.3955    1.1816    0.0000 H   0  0  0  0  0  0  0  0  0  0  0  0
    1.7310    0.4850    0.0000 H   0  0  0  0  0  0  0  0  0  0  0  0
    4.9093   -0.4625    0.0000 H   0  0  0  0  0  0  0  0  0  0  0  0
    4.7905    0.3257    0.0000 H   0  0  0  0  0  0  0  0  0  0  0  0
    5.7983    3.0202    0.0000 H   0  0  0  0  0  0  0  0  0  0  0  0
    5.1080    2.6217    0.0000 H   0  0  0  0  0  0  0  0  0  0  0  0
    3.4859   -0.7467    0.0000 H   0  0  0  0  0  0  0  0  0  0  0  0
    3.6047   -1.5349    0.0000 H   0  0  0  0  0  0  0  0  0  0  0  0
    3.1638    3.7800    0.0000 H   0  0  0  0  0  0  0  0  0  0  0  0
    2.4214    4.2465    0.0000 H   0  0  0  0  0  0  0  0  0  0  0  0
    1.9549    3.5041    0.0000 H   0  0  0  0  0  0  0  0  0  0  0  0
    6.3806    2.9466    0.0000 H   0  0  0  0  0  0  0  0  0  0  0  0
    5.0250   -2.3366    0.0000 H   0  0  0  0  0  0  0  0  0  0  0  0
    8.5006    1.0067    0.0000 H   0  0  0  0  0  0  0  0  0  0  0  0
    8.5006    3.8126    0.0000 H   0  0  0  0  0  0  0  0  0  0  0  0
    4.6700   -4.1417    0.0000 H   0  0  0  0  0  0  0  0  0  0  0  0
    6.8638   -2.3923    0.0000 H   0  0  0  0  0  0  0  0  0  0  0  0
  1 23  1  0  0  0  0
  1 51  1  0  0  0  0
  2 24  1  0  0  0  0
  2 52  1  0  0  0  0
  3 25  1  0  0  0  0
  3 53  1  0  0  0  0
  4 26  1  0  0  0  0
  4 54  1  0  0  0  0
  5 23  2  0  0  0  0
  6 24  2  0  0  0  0
  7 25  2  0  0  0  0
  8 26  2  0  0  0  0
  9 10  1  0  0  0  0
  9 11  1  0  0  0  0
  9 14  1  0  0  0  0
  9 27  1  0  0  0  0
 10 13  1  0  0  0  0
 10 17  1  0  0  0  0
 10 28  1  0  0  0  0
 11 12  1  0  0  0  0
 11 29  1  0  0  0  0
 11 30  1  0  0  0  0
 12 15  1  0  0  0  0
 12 20  1  0  0  0  0
 12 31  1  0  0  0  0
 13 16  1  0  0  0  0
 13 32  1  0  0  0  0
 13 33  1  0  0  0  0
 14 18  1  0  0  0  0
 14 34  1  0  0  0  0
 14 35  1  0  0  0  0
 15 16  1  0  0  0  0
 15 36  1  0  0  0  0
 15 37  1  0  0  0  0
 16 38  1  0  0  0  0
 16 39  1  0  0  0  0
 17 19  1  0  0  0  0
 17 40  1  0  0  0  0
 17 41  1  0  0  0  0
 18 21  1  0  0  0  0
 18 42  1  0  0  0  0
 18 43  1  0  0  0  0
 19 22  1  0  0  0  0
 19 44  1  0  0  0  0
 19 45  1  0  0  0  0
 20 46  1  0  0  0  0
 20 47  1  0  0  0  0
 20 48  1  0  0  0  0
 21 23  1  0  0  0  0
 21 24  1  0  0  0  0
 21 49  1  0  0  0  0
 22 25  1  0  0  0  0
 22 26  1  0  0  0  0
 22 50  1  0  0  0  0
M  END
> <PUBCHEM_COMPOUND_CID>
68420042

> <PUBCHEM_COMPOUND_CANONICALIZED>
1

> <PUBCHEM_CACTVS_COMPLEXITY>
501

> <PUBCHEM_CACTVS_HBOND_ACCEPTOR>
8

> <PUBCHEM_CACTVS_HBOND_DONOR>
4

> <PUBCHEM_CACTVS_ROTATABLE_BOND>
10

> <PUBCHEM_CACTVS_SUBSKEYS>
AAADceB4PAAAAAAAAAAAAAAAAAAAAAAAAAAAAAAABgAAAAAAAAAAGgAACAAADQCAgAACCAAAAgAIAACQCAAAAAAAAAAAAAEAAAAAABYIAAAAQAAFIAAAAAGIyPCOgAAAAAAAAAAAAAAAAAAAAAAAAAAAAA==

> <PUBCHEM_IUPAC_OPENEYE_NAME>
2-[2-[2-(3,3-dicarboxypropyl)-4-methyl-cycloheptyl]ethyl]propanedioic acid

> <PUBCHEM_IUPAC_CAS_NAME>
2-[2-[2-(3,3-dicarboxypropyl)-4-methylcycloheptyl]ethyl]propanedioic acid

> <PUBCHEM_IUPAC_NAME_MARKUP>
2-[2-[2-(3,3-dicarboxypropyl)-4-methylcycloheptyl]ethyl]propanedioic acid

> <PUBCHEM_IUPAC_NAME>
2-[2-[2-(3,3-dicarboxypropyl)-4-methylcycloheptyl]ethyl]propanedioic acid

> <PUBCHEM_IUPAC_SYSTEMATIC_NAME>
2-[2-[2-(3-carboxy-4-oxidanyl-4-oxidanylidene-butyl)-4-methyl-cycloheptyl]ethyl]propanedioic acid

> <PUBCHEM_IUPAC_TRADITIONAL_NAME>
2-[2-[2-(3,3-dicarboxypropyl)-4-methyl-cycloheptyl]ethyl]malonic acid

> <PUBCHEM_IUPAC_INCHI>
InChI=1S/C18H28O8/c1-10-3-2-4-11(5-7-13(15(19)20)16(21)22)12(9-10)6-8-14(17(23)24)18(25)26/h10-14H,2-9H2,1H3,(H,19,20)(H,21,22)(H,23,24)(H,25,26)

> <PUBCHEM_IUPAC_INCHIKEY>
CHDDWVPIZXTSOZ-UHFFFAOYSA-N

> <PUBCHEM_XLOGP3_AA>
3.9

> <PUBCHEM_EXACT_MASS>
372.17841785

> <PUBCHEM_MOLECULAR_FORMULA>
C18H28O8

> <PUBCHEM_MOLECULAR_WEIGHT>
372.4

> <PUBCHEM_OPENEYE_CAN_SMILES>
CC1CCCC(C(C1)CCC(C(=O)O)C(=O)O)CCC(C(=O)O)C(=O)O

> <PUBCHEM_OPENEYE_ISO_SMILES>
CC1CCCC(C(C1)CCC(C(=O)O)C(=O)O)CCC(C(=O)O)C(=O)O

> <PUBCHEM_CACTVS_TPSA>
149

> <PUBCHEM_MONOISOTOPIC_WEIGHT>
372.17841785

> <PUBCHEM_TOTAL_CHARGE>
0

> <PUBCHEM_HEAVY_ATOM_COUNT>
26

> <PUBCHEM_ATOM_DEF_STEREO_COUNT>
0

> <PUBCHEM_ATOM_UDEF_STEREO_COUNT>
3

> <PUBCHEM_BOND_DEF_STEREO_COUNT>
0

> <PUBCHEM_BOND_UDEF_STEREO_COUNT>
0

> <PUBCHEM_ISOTOPIC_ATOM_COUNT>
0

> <PUBCHEM_COMPONENT_COUNT>
1

> <PUBCHEM_CACTVS_TAUTO_COUNT>
-1

> <PUBCHEM_COORDINATE_TYPE>
1
5
255

> <PUBCHEM_BONDANNOTATIONS>
10  17  3
12  20  3
9  14  3

$$$$
