 
  -OEChem-10192104042D

 63 64  0     1  0  0  0  0  0999 V2000
    8.0622   -3.5950    0.0000 O   0  0  0  0  0  0  0  0  0  0  0  0
    8.9282   -2.0950    0.0000 O   0  0  0  0  0  0  0  0  0  0  0  0
    6.3301   -1.5950    0.0000 O   0  0  0  0  0  0  0  0  0  0  0  0
    6.3301   -4.5950    0.0000 O   0  0  0  0  0  0  0  0  0  0  0  0
    8.0622   -1.5950    0.0000 O   0  0  0  0  0  0  0  0  0  0  0  0
    4.5981   -3.5950    0.0000 O   0  0  0  0  0  0  0  0  0  0  0  0
    9.7942   -4.5950    0.0000 O   0  0  0  0  0  0  0  0  0  0  0  0
   11.5263   -3.5950    0.0000 O   0  0  0  0  0  0  0  0  0  0  0  0
   11.5263   -1.5950    0.0000 O   0  0  0  0  0  0  0  0  0  0  0  0
    4.5981   -0.5950    0.0000 O   0  0  0  0  0  0  0  0  0  0  0  0
   10.6603   -0.0950    0.0000 O   0  0  0  0  0  0  0  0  0  0  0  0
    7.1962   -3.0950    0.0000 C   0  0  2  0  0  0  0  0  0  0  0  0
    6.3301   -3.5950    0.0000 C   0  0  2  0  0  0  0  0  0  0  0  0
    8.9282   -3.0950    0.0000 C   0  0  2  0  0  0  0  0  0  0  0  0
    5.4641   -3.0950    0.0000 C   0  0  1  0  0  0  0  0  0  0  0  0
    9.7942   -3.5950    0.0000 C   0  0  1  0  0  0  0  0  0  0  0  0
   10.6603   -3.0950    0.0000 C   0  0  2  0  0  0  0  0  0  0  0  0
    7.1962   -2.0950    0.0000 C   0  0  1  0  0  0  0  0  0  0  0  0
    5.4641   -2.0950    0.0000 C   0  0  1  0  0  0  0  0  0  0  0  0
   10.6603   -2.0950    0.0000 C   0  0  1  0  0  0  0  0  0  0  0  0
    9.7942   -1.5950    0.0000 C   0  0  1  0  0  0  0  0  0  0  0  0
    4.5981   -1.5950    0.0000 C   0  0  0  0  0  0  0  0  0  0  0  0
    9.7942   -0.5950    0.0000 C   0  0  0  0  0  0  0  0  0  0  0  0
    8.0622   -0.5950    0.0000 C   0  0  0  0  0  0  0  0  0  0  0  0
    7.1962   -0.0950    0.0000 C   0  0  0  0  0  0  0  0  0  0  0  0
    7.1962    0.9050    0.0000 C   0  0  0  0  0  0  0  0  0  0  0  0
    6.3301    1.4050    0.0000 C   0  0  0  0  0  0  0  0  0  0  0  0
    5.4641    1.9050    0.0000 C   0  0  0  0  0  0  0  0  0  0  0  0
    4.5981    2.4050    0.0000 C   0  0  0  0  0  0  0  0  0  0  0  0
    3.7320    2.9050    0.0000 C   0  0  0  0  0  0  0  0  0  0  0  0
    2.8660    3.4050    0.0000 C   0  0  0  0  0  0  0  0  0  0  0  0
    2.8660    4.4050    0.0000 C   0  0  0  0  0  0  0  0  0  0  0  0
    2.0000    4.9050    0.0000 C   0  0  0  0  0  0  0  0  0  0  0  0
    7.1962   -3.7150    0.0000 H   0  0  0  0  0  0  0  0  0  0  0  0
    5.7932   -3.9050    0.0000 H   0  0  0  0  0  0  0  0  0  0  0  0
    8.9282   -3.7150    0.0000 H   0  0  0  0  0  0  0  0  0  0  0  0
    5.4641   -3.7150    0.0000 H   0  0  0  0  0  0  0  0  0  0  0  0
   10.3312   -3.9050    0.0000 H   0  0  0  0  0  0  0  0  0  0  0  0
   10.6603   -3.7150    0.0000 H   0  0  0  0  0  0  0  0  0  0  0  0
    7.7331   -2.4050    0.0000 H   0  0  0  0  0  0  0  0  0  0  0  0
    5.4641   -1.4750    0.0000 H   0  0  0  0  0  0  0  0  0  0  0  0
   11.1972   -2.4050    0.0000 H   0  0  0  0  0  0  0  0  0  0  0  0
    9.2573   -1.2850    0.0000 H   0  0  0  0  0  0  0  0  0  0  0  0
    3.9875   -1.4873    0.0000 H   0  0  0  0  0  0  0  0  0  0  0  0
    4.3860   -2.1776    0.0000 H   0  0  0  0  0  0  0  0  0  0  0  0
    9.5822   -0.0124    0.0000 H   0  0  0  0  0  0  0  0  0  0  0  0
    9.1836   -0.7027    0.0000 H   0  0  0  0  0  0  0  0  0  0  0  0
    5.7932   -4.9050    0.0000 H   0  0  0  0  0  0  0  0  0  0  0  0
    4.0611   -3.2850    0.0000 H   0  0  0  0  0  0  0  0  0  0  0  0
   10.3312   -4.9050    0.0000 H   0  0  0  0  0  0  0  0  0  0  0  0
   12.0632   -3.2850    0.0000 H   0  0  0  0  0  0  0  0  0  0  0  0
   12.0632   -1.9050    0.0000 H   0  0  0  0  0  0  0  0  0  0  0  0
    8.6728   -0.7027    0.0000 H   0  0  0  0  0  0  0  0  0  0  0  0
    8.2742   -0.0124    0.0000 H   0  0  0  0  0  0  0  0  0  0  0  0
    4.0611   -0.2850    0.0000 H   0  0  0  0  0  0  0  0  0  0  0  0
   10.6603    0.5250    0.0000 H   0  0  0  0  0  0  0  0  0  0  0  0
    6.6592   -0.4050    0.0000 H   0  0  0  0  0  0  0  0  0  0  0  0
    7.7331    1.2150    0.0000 H   0  0  0  0  0  0  0  0  0  0  0  0
    2.3291    3.0950    0.0000 H   0  0  0  0  0  0  0  0  0  0  0  0
    3.4030    4.7150    0.0000 H   0  0  0  0  0  0  0  0  0  0  0  0
    2.3100    5.4419    0.0000 H   0  0  0  0  0  0  0  0  0  0  0  0
    1.4631    5.2150    0.0000 H   0  0  0  0  0  0  0  0  0  0  0  0
    1.6900    4.3681    0.0000 H   0  0  0  0  0  0  0  0  0  0  0  0
 12  1  1  6  0  0  0
 14  1  1  6  0  0  0
  2 14  1  0  0  0  0
  2 21  1  0  0  0  0
  3 18  1  0  0  0  0
  3 19  1  0  0  0  0
 13  4  1  1  0  0  0
  4 48  1  0  0  0  0
 18  5  1  1  0  0  0
  5 24  1  0  0  0  0
 15  6  1  6  0  0  0
  6 49  1  0  0  0  0
 16  7  1  1  0  0  0
  7 50  1  0  0  0  0
 17  8  1  6  0  0  0
  8 51  1  0  0  0  0
 20  9  1  1  0  0  0
  9 52  1  0  0  0  0
 10 22  1  0  0  0  0
 10 55  1  0  0  0  0
 11 23  1  0  0  0  0
 11 56  1  0  0  0  0
 12 13  1  0  0  0  0
 12 18  1  0  0  0  0
 12 34  1  0  0  0  0
 13 15  1  0  0  0  0
 13 35  1  0  0  0  0
 14 16  1  0  0  0  0
 14 36  1  0  0  0  0
 15 19  1  0  0  0  0
 15 37  1  0  0  0  0
 16 17  1  0  0  0  0
 16 38  1  0  0  0  0
 17 20  1  0  0  0  0
 17 39  1  0  0  0  0
 18 40  1  0  0  0  0
 19 22  1  1  0  0  0
 19 41  1  0  0  0  0
 20 21  1  0  0  0  0
 20 42  1  0  0  0  0
 21 23  1  6  0  0  0
 21 43  1  0  0  0  0
 22 44  1  0  0  0  0
 22 45  1  0  0  0  0
 23 46  1  0  0  0  0
 23 47  1  0  0  0  0
 24 25  1  0  0  0  0
 24 53  1  0  0  0  0
 24 54  1  0  0  0  0
 25 26  2  0  0  0  0
 25 57  1  0  0  0  0
 26 27  1  0  0  0  0
 26 58  1  0  0  0  0
 27 28  3  0  0  0  0
 28 29  1  0  0  0  0
 29 30  3  0  0  0  0
 30 31  1  0  0  0  0
 31 32  2  0  0  0  0
 31 59  1  0  0  0  0
 32 33  1  0  0  0  0
 32 60  1  0  0  0  0
 33 61  1  0  0  0  0
 33 62  1  0  0  0  0
 33 63  1  0  0  0  0
M  END
> <PUBCHEM_COMPOUND_CID>
101916488

> <PUBCHEM_COMPOUND_CANONICALIZED>
1

> <PUBCHEM_CACTVS_COMPLEXITY>
800

> <PUBCHEM_CACTVS_HBOND_ACCEPTOR>
11

> <PUBCHEM_CACTVS_HBOND_DONOR>
7

> <PUBCHEM_CACTVS_ROTATABLE_BOND>
8

> <PUBCHEM_CACTVS_SUBSKEYS>
AAADceB4PAAAAAAAAAAAAAAAAAAAAAAAAAAkSAAAAAAAAAAAAAAAGgAACAAACBSwgAMCCAAABgDAECBCAAAAAAAAAAAICAAAAAARFAIAIQAiUAAFAAAHIAHAYAwAAAAAAAAAAAAAAAAAAAAAAAAAAAAAAA==

> <PUBCHEM_IUPAC_OPENEYE_NAME>
(2S,3R,4S,5S,6R)-2-[(2R,3R,4S,5S,6R)-2-[(2E,8E)-deca-2,8-dien-4,6-diynoxy]-4,5-dihydroxy-6-(hydroxymethyl)tetrahydropyran-3-yl]oxy-6-(hydroxymethyl)tetrahydropyran-3,4,5-triol

> <PUBCHEM_IUPAC_CAS_NAME>
(2S,3R,4S,5S,6R)-2-[[(2R,3R,4S,5S,6R)-2-[(2E,8E)-deca-2,8-dien-4,6-diynoxy]-4,5-dihydroxy-6-(hydroxymethyl)-3-oxanyl]oxy]-6-(hydroxymethyl)oxane-3,4,5-triol

> <PUBCHEM_IUPAC_NAME_MARKUP>
(2<I>S</I>,3<I>R</I>,4<I>S</I>,5<I>S</I>,6<I>R</I>)-2-[(2<I>R</I>,3<I>R</I>,4<I>S</I>,5<I>S</I>,6<I>R</I>)-2-[(2<I>E</I>,8<I>E</I>)-deca-2,8-dien-4,6-diynoxy]-4,5-dihydroxy-6-(hydroxymethyl)oxan-3-yl]oxy-6-(hydroxymethyl)oxane-3,4,5-triol

> <PUBCHEM_IUPAC_NAME>
(2S,3R,4S,5S,6R)-2-[(2R,3R,4S,5S,6R)-2-[(2E,8E)-deca-2,8-dien-4,6-diynoxy]-4,5-dihydroxy-6-(hydroxymethyl)oxan-3-yl]oxy-6-(hydroxymethyl)oxane-3,4,5-triol

> <PUBCHEM_IUPAC_SYSTEMATIC_NAME>
(2S,3R,4S,5S,6R)-2-[(2R,3R,4S,5S,6R)-2-[(2E,8E)-deca-2,8-dien-4,6-diynoxy]-6-(hydroxymethyl)-4,5-bis(oxidanyl)oxan-3-yl]oxy-6-(hydroxymethyl)oxane-3,4,5-triol

> <PUBCHEM_IUPAC_TRADITIONAL_NAME>
(2S,3R,4S,5S,6R)-2-[(2R,3R,4S,5S,6R)-2-[(2E,8E)-deca-2,8-dien-4,6-diynoxy]-4,5-dihydroxy-6-methylol-tetrahydropyran-3-yl]oxy-6-methylol-tetrahydropyran-3,4,5-triol

> <PUBCHEM_IUPAC_INCHI>
InChI=1S/C22H30O11/c1-2-3-4-5-6-7-8-9-10-30-22-20(18(28)16(26)14(12-24)32-22)33-21-19(29)17(27)15(25)13(11-23)31-21/h2-3,8-9,13-29H,10-12H2,1H3/b3-2+,9-8+/t13-,14-,15-,16-,17+,18+,19-,20-,21+,22-/m1/s1

> <PUBCHEM_IUPAC_INCHIKEY>
KCHIICSPISZNAW-VUYQXUHDSA-N

> <PUBCHEM_XLOGP3_AA>
-1.3

> <PUBCHEM_EXACT_MASS>
470.17881177

> <PUBCHEM_MOLECULAR_FORMULA>
C22H30O11

> <PUBCHEM_MOLECULAR_WEIGHT>
470.5

> <PUBCHEM_OPENEYE_CAN_SMILES>
CC=CC#CC#CC=CCOC1C(C(C(C(O1)CO)O)O)OC2C(C(C(C(O2)CO)O)O)O

> <PUBCHEM_OPENEYE_ISO_SMILES>
C/C=C/C#CC#C/C=C/CO[C@H]1[C@@H]([C@H]([C@@H]([C@H](O1)CO)O)O)O[C@H]2[C@@H]([C@H]([C@@H]([C@H](O2)CO)O)O)O

> <PUBCHEM_CACTVS_TPSA>
179

> <PUBCHEM_MONOISOTOPIC_WEIGHT>
470.17881177

> <PUBCHEM_TOTAL_CHARGE>
0

> <PUBCHEM_HEAVY_ATOM_COUNT>
33

> <PUBCHEM_ATOM_DEF_STEREO_COUNT>
10

> <PUBCHEM_ATOM_UDEF_STEREO_COUNT>
0

> <PUBCHEM_BOND_DEF_STEREO_COUNT>
2

> <PUBCHEM_BOND_UDEF_STEREO_COUNT>
0

> <PUBCHEM_ISOTOPIC_ATOM_COUNT>
0

> <PUBCHEM_COMPONENT_COUNT>
1

> <PUBCHEM_CACTVS_TAUTO_COUNT>
-1

> <PUBCHEM_COORDINATE_TYPE>
1
5
255

> <PUBCHEM_BONDANNOTATIONS>
12  1  6
14  1  6
19  22  5
21  23  6
13  4  5
18  5  5
15  6  6
16  7  5
17  8  6
20  9  5

$$$$
