 
  -OEChem-10192103512D

 66 65  0     1  0  0  0  0  0999 V2000
    3.2690   -4.1656    0.0000 O   0  0  0  0  0  0  0  0  0  0  0  0
    6.0010    6.2267    0.0000 O   0  0  0  0  0  0  0  0  0  0  0  0
    2.5369    6.2267    0.0000 O   0  0  0  0  0  0  0  0  0  0  0  0
    4.2690    7.9588    0.0000 O   0  0  0  0  0  0  0  0  0  0  0  0
    5.1350    7.7267    0.0000 O   0  0  0  0  0  0  0  0  0  0  0  0
    3.4030    4.7267    0.0000 O   0  0  0  0  0  0  0  0  0  0  0  0
    2.7690    7.0928    0.0000 O   0  0  0  0  0  0  0  0  0  0  0  0
    4.2690   -0.7015    0.0000 C   0  0  0  0  0  0  0  0  0  0  0  0
    4.7690   -1.5675    0.0000 C   0  0  0  0  0  0  0  0  0  0  0  0
    4.7690    0.1645    0.0000 C   0  0  0  0  0  0  0  0  0  0  0  0
    4.2690   -2.4335    0.0000 C   0  0  0  0  0  0  0  0  0  0  0  0
    4.2690    1.0306    0.0000 C   0  0  0  0  0  0  0  0  0  0  0  0
    4.7690   -3.2996    0.0000 C   0  0  0  0  0  0  0  0  0  0  0  0
    4.7690    1.8966    0.0000 C   0  0  0  0  0  0  0  0  0  0  0  0
    4.2690   -4.1656    0.0000 C   0  0  3  0  0  0  0  0  0  0  0  0
    4.2690    2.7626    0.0000 C   0  0  0  0  0  0  0  0  0  0  0  0
    4.7690    3.6286    0.0000 C   0  0  0  0  0  0  0  0  0  0  0  0
    4.7690   -5.0316    0.0000 C   0  0  0  0  0  0  0  0  0  0  0  0
    4.2690    4.4947    0.0000 C   0  0  0  0  0  0  0  0  0  0  0  0
    4.7690    5.3607    0.0000 C   0  0  0  0  0  0  0  0  0  0  0  0
    4.2690   -5.8976    0.0000 C   0  0  0  0  0  0  0  0  0  0  0  0
    4.2690    6.2267    0.0000 C   0  0  0  0  0  0  0  0  0  0  0  0
    4.7690   -6.7637    0.0000 C   0  0  0  0  0  0  0  0  0  0  0  0
    4.2690   -7.6297    0.0000 C   0  0  0  0  0  0  0  0  0  0  0  0
    5.1350    6.7267    0.0000 C   0  0  0  0  0  0  0  0  0  0  0  0
    3.4030    5.7267    0.0000 C   0  0  0  0  0  0  0  0  0  0  0  0
    3.7690    7.0928    0.0000 C   0  0  0  0  0  0  0  0  0  0  0  0
    4.7690   -8.4957    0.0000 C   0  0  0  0  0  0  0  0  0  0  0  0
    3.7940   -0.3030    0.0000 H   0  0  0  0  0  0  0  0  0  0  0  0
    3.7940   -1.1000    0.0000 H   0  0  0  0  0  0  0  0  0  0  0  0
    5.2439   -1.9660    0.0000 H   0  0  0  0  0  0  0  0  0  0  0  0
    5.2439   -1.1690    0.0000 H   0  0  0  0  0  0  0  0  0  0  0  0
    5.2439   -0.2340    0.0000 H   0  0  0  0  0  0  0  0  0  0  0  0
    5.2439    0.5631    0.0000 H   0  0  0  0  0  0  0  0  0  0  0  0
    3.7940   -2.0350    0.0000 H   0  0  0  0  0  0  0  0  0  0  0  0
    3.7940   -2.8321    0.0000 H   0  0  0  0  0  0  0  0  0  0  0  0
    3.7940    1.4291    0.0000 H   0  0  0  0  0  0  0  0  0  0  0  0
    3.7940    0.6320    0.0000 H   0  0  0  0  0  0  0  0  0  0  0  0
    5.2439   -3.6981    0.0000 H   0  0  0  0  0  0  0  0  0  0  0  0
    5.2439   -2.9010    0.0000 H   0  0  0  0  0  0  0  0  0  0  0  0
    5.2439    1.4981    0.0000 H   0  0  0  0  0  0  0  0  0  0  0  0
    5.2439    2.2951    0.0000 H   0  0  0  0  0  0  0  0  0  0  0  0
    3.9590   -3.6286    0.0000 H   0  0  0  0  0  0  0  0  0  0  0  0
    3.7940    3.1612    0.0000 H   0  0  0  0  0  0  0  0  0  0  0  0
    3.7940    2.3641    0.0000 H   0  0  0  0  0  0  0  0  0  0  0  0
    5.2439    3.2301    0.0000 H   0  0  0  0  0  0  0  0  0  0  0  0
    5.2439    4.0272    0.0000 H   0  0  0  0  0  0  0  0  0  0  0  0
    5.2439   -5.4301    0.0000 H   0  0  0  0  0  0  0  0  0  0  0  0
    5.2439   -4.6331    0.0000 H   0  0  0  0  0  0  0  0  0  0  0  0
    3.7940    4.8932    0.0000 H   0  0  0  0  0  0  0  0  0  0  0  0
    3.7940    4.0961    0.0000 H   0  0  0  0  0  0  0  0  0  0  0  0
    5.2439    4.9622    0.0000 H   0  0  0  0  0  0  0  0  0  0  0  0
    5.2439    5.7592    0.0000 H   0  0  0  0  0  0  0  0  0  0  0  0
    3.7940   -5.4991    0.0000 H   0  0  0  0  0  0  0  0  0  0  0  0
    3.7940   -6.2962    0.0000 H   0  0  0  0  0  0  0  0  0  0  0  0
    5.2439   -7.1622    0.0000 H   0  0  0  0  0  0  0  0  0  0  0  0
    5.2439   -6.3651    0.0000 H   0  0  0  0  0  0  0  0  0  0  0  0
    3.7940   -7.2312    0.0000 H   0  0  0  0  0  0  0  0  0  0  0  0
    3.7940   -8.0282    0.0000 H   0  0  0  0  0  0  0  0  0  0  0  0
    2.9590   -4.7025    0.0000 H   0  0  0  0  0  0  0  0  0  0  0  0
    4.2320   -8.8057    0.0000 H   0  0  0  0  0  0  0  0  0  0  0  0
    5.0790   -9.0326    0.0000 H   0  0  0  0  0  0  0  0  0  0  0  0
    5.3059   -8.1857    0.0000 H   0  0  0  0  0  0  0  0  0  0  0  0
    6.5380    6.5367    0.0000 H   0  0  0  0  0  0  0  0  0  0  0  0
    2.0000    5.9167    0.0000 H   0  0  0  0  0  0  0  0  0  0  0  0
    3.9590    8.4957    0.0000 H   0  0  0  0  0  0  0  0  0  0  0  0
  1 15  1  0  0  0  0
  1 60  1  0  0  0  0
  2 25  1  0  0  0  0
  2 64  1  0  0  0  0
  3 26  1  0  0  0  0
  3 65  1  0  0  0  0
  4 27  1  0  0  0  0
  4 66  1  0  0  0  0
  5 25  2  0  0  0  0
  6 26  2  0  0  0  0
  7 27  2  0  0  0  0
  8  9  1  0  0  0  0
  8 10  1  0  0  0  0
  8 29  1  0  0  0  0
  8 30  1  0  0  0  0
  9 11  1  0  0  0  0
  9 31  1  0  0  0  0
  9 32  1  0  0  0  0
 10 12  1  0  0  0  0
 10 33  1  0  0  0  0
 10 34  1  0  0  0  0
 11 13  1  0  0  0  0
 11 35  1  0  0  0  0
 11 36  1  0  0  0  0
 12 14  1  0  0  0  0
 12 37  1  0  0  0  0
 12 38  1  0  0  0  0
 13 15  1  0  0  0  0
 13 39  1  0  0  0  0
 13 40  1  0  0  0  0
 14 16  1  0  0  0  0
 14 41  1  0  0  0  0
 14 42  1  0  0  0  0
 15 18  1  0  0  0  0
 15 43  1  0  0  0  0
 16 17  1  0  0  0  0
 16 44  1  0  0  0  0
 16 45  1  0  0  0  0
 17 19  1  0  0  0  0
 17 46  1  0  0  0  0
 17 47  1  0  0  0  0
 18 21  1  0  0  0  0
 18 48  1  0  0  0  0
 18 49  1  0  0  0  0
 19 20  1  0  0  0  0
 19 50  1  0  0  0  0
 19 51  1  0  0  0  0
 20 22  1  0  0  0  0
 20 52  1  0  0  0  0
 20 53  1  0  0  0  0
 21 23  1  0  0  0  0
 21 54  1  0  0  0  0
 21 55  1  0  0  0  0
 22 25  1  0  0  0  0
 22 26  1  0  0  0  0
 22 27  1  0  0  0  0
 23 24  1  0  0  0  0
 23 56  1  0  0  0  0
 23 57  1  0  0  0  0
 24 28  1  0  0  0  0
 24 58  1  0  0  0  0
 24 59  1  0  0  0  0
 28 61  1  0  0  0  0
 28 62  1  0  0  0  0
 28 63  1  0  0  0  0
M  END
> <PUBCHEM_COMPOUND_CID>
91021444

> <PUBCHEM_COMPOUND_CANONICALIZED>
1

> <PUBCHEM_CACTVS_COMPLEXITY>
426

> <PUBCHEM_CACTVS_HBOND_ACCEPTOR>
7

> <PUBCHEM_CACTVS_HBOND_DONOR>
4

> <PUBCHEM_CACTVS_ROTATABLE_BOND>
19

> <PUBCHEM_CACTVS_SUBSKEYS>
AAADcfB4OAAAAAAAAAAAAAAAAAAAAAAAAAAAAAAAAAAAAAAAAAAAGgAACAAADhSggAICCAAAAgAIAACQCAAAAAAAAAAAAAEAAAAAEBYIAAAAQAAFIAAAAAGIyOCNAAAAAAAAAAAAAAAAAAAAAAAAAAAAAA==

> <PUBCHEM_IUPAC_OPENEYE_NAME>
13-hydroxyoctadecane-1,1,1-tricarboxylic acid

> <PUBCHEM_IUPAC_CAS_NAME>
13-hydroxyoctadecane-1,1,1-tricarboxylic acid

> <PUBCHEM_IUPAC_NAME_MARKUP>
13-hydroxyoctadecane-1,1,1-tricarboxylic acid

> <PUBCHEM_IUPAC_NAME>
13-hydroxyoctadecane-1,1,1-tricarboxylic acid

> <PUBCHEM_IUPAC_SYSTEMATIC_NAME>
13-oxidanyloctadecane-1,1,1-tricarboxylic acid

> <PUBCHEM_IUPAC_TRADITIONAL_NAME>
13-hydroxyoctadecane-1,1,1-tricarboxylic acid

> <PUBCHEM_IUPAC_INCHI>
InChI=1S/C21H38O7/c1-2-3-11-14-17(22)15-12-9-7-5-4-6-8-10-13-16-21(18(23)24,19(25)26)20(27)28/h17,22H,2-16H2,1H3,(H,23,24)(H,25,26)(H,27,28)

> <PUBCHEM_IUPAC_INCHIKEY>
PLWDUSRIADODLP-UHFFFAOYSA-N

> <PUBCHEM_XLOGP3_AA>
6.2

> <PUBCHEM_EXACT_MASS>
402.26175355

> <PUBCHEM_MOLECULAR_FORMULA>
C21H38O7

> <PUBCHEM_MOLECULAR_WEIGHT>
402.5

> <PUBCHEM_OPENEYE_CAN_SMILES>
CCCCCC(CCCCCCCCCCCC(C(=O)O)(C(=O)O)C(=O)O)O

> <PUBCHEM_OPENEYE_ISO_SMILES>
CCCCCC(CCCCCCCCCCCC(C(=O)O)(C(=O)O)C(=O)O)O

> <PUBCHEM_CACTVS_TPSA>
132

> <PUBCHEM_MONOISOTOPIC_WEIGHT>
402.26175355

> <PUBCHEM_TOTAL_CHARGE>
0

> <PUBCHEM_HEAVY_ATOM_COUNT>
28

> <PUBCHEM_ATOM_DEF_STEREO_COUNT>
0

> <PUBCHEM_ATOM_UDEF_STEREO_COUNT>
1

> <PUBCHEM_BOND_DEF_STEREO_COUNT>
0

> <PUBCHEM_BOND_UDEF_STEREO_COUNT>
0

> <PUBCHEM_ISOTOPIC_ATOM_COUNT>
0

> <PUBCHEM_COMPONENT_COUNT>
1

> <PUBCHEM_CACTVS_TAUTO_COUNT>
-1

> <PUBCHEM_COORDINATE_TYPE>
1
5
255

> <PUBCHEM_BONDANNOTATIONS>
15  1  3

$$$$
