 
  -OEChem-10192103292D

100107  0     1  0  0  0  0  0999 V2000
    7.7062    1.6986    0.0000 O   0  0  0  0  0  0  0  0  0  0  0  0
    3.5719    2.6280    0.0000 O   0  0  0  0  0  0  0  0  0  0  0  0
    9.3075    0.5179    0.0000 O   0  0  0  0  0  0  0  0  0  0  0  0
    5.7005   -1.6430    0.0000 O   0  0  0  0  0  0  0  0  0  0  0  0
    8.2244    1.5147    0.0000 O   0  0  0  0  0  0  0  0  0  0  0  0
    5.7037    3.9286    0.0000 O   0  0  0  0  0  0  0  0  0  0  0  0
    6.5706   -2.6596    0.0000 O   0  0  0  0  0  0  0  0  0  0  0  0
    4.6262   -0.9436    0.0000 O   0  0  0  0  0  0  0  0  0  0  0  0
    3.2793    4.5026    0.0000 O   0  0  0  0  0  0  0  0  0  0  0  0
   10.1104   -2.6732    0.0000 O   0  0  0  0  0  0  0  0  0  0  0  0
   10.7443   -1.9836    0.0000 O   0  0  0  0  0  0  0  0  0  0  0  0
    4.2175    0.1783    0.0000 O   0  0  0  0  0  0  0  0  0  0  0  0
   10.7243   -0.2516    0.0000 O   0  0  0  0  0  0  0  0  0  0  0  0
    5.7986    0.8856    0.0000 O   0  0  0  0  0  0  0  0  0  0  0  0
    5.4327    5.6393    0.0000 O   0  0  0  0  0  0  0  0  0  0  0  0
    7.4192   -4.1695    0.0000 O   0  0  0  0  0  0  0  0  0  0  0  0
    9.2502   -4.1765    0.0000 O   0  0  0  0  0  0  0  0  0  0  0  0
    6.7660    1.3567    0.0000 C   0  0  1  0  0  0  0  0  0  0  0  0
    6.5924    0.3719    0.0000 C   0  0  1  0  0  0  0  0  0  0  0  0
    6.9397    2.3415    0.0000 C   0  0  2  0  0  0  0  0  0  0  0  0
    6.5924   -0.6281    0.0000 C   0  0  1  0  0  0  0  0  0  0  0  0
    7.4584   -1.1281    0.0000 C   0  0  2  0  0  0  0  0  0  0  0  0
    5.4568    2.4716    0.0000 C   0  0  2  0  0  0  0  0  0  0  0  0
    5.2831    1.4868    0.0000 C   0  0  2  0  0  0  0  0  0  0  0  0
    8.3244   -0.6281    0.0000 C   0  0  1  0  0  0  0  0  0  0  0  0
    7.4584    0.8719    0.0000 C   0  0  1  0  0  0  0  0  0  0  0  0
    4.2002    0.9075    0.0000 C   0  0  0  0  0  0  0  0  0  0  0  0
    8.3244    0.3719    0.0000 C   0  0  2  0  0  0  0  0  0  0  0  0
    9.2344   -1.1349    0.0000 C   0  0  1  0  0  0  0  0  0  0  0  0
    4.7160    3.7722    0.0000 C   0  0  2  0  0  0  0  0  0  0  0  0
    5.6206   -0.8373    0.0000 C   0  0  1  0  0  0  0  0  0  0  0  0
    7.4423   -2.1696    0.0000 C   0  0  2  0  0  0  0  0  0  0  0  0
    5.8263   -0.2709    0.0000 C   0  0  0  0  0  0  0  0  0  0  0  0
    7.1133    3.3263    0.0000 C   0  0  0  0  0  0  0  0  0  0  0  0
    6.7913   -1.8651    0.0000 C   0  0  0  0  0  0  0  0  0  0  0  0
    3.7283    3.6157    0.0000 C   0  0  2  0  0  0  0  0  0  0  0  0
    9.2424   -2.1765    0.0000 C   0  0  1  0  0  0  0  0  0  0  0  0
    8.3404   -2.6974    0.0000 C   0  0  0  0  0  0  0  0  0  0  0  0
    9.8212   -0.3329    0.0000 C   0  0  0  0  0  0  0  0  0  0  0  0
    4.8689    4.7544    0.0000 C   0  0  0  0  0  0  0  0  0  0  0  0
   10.2344   -1.1234    0.0000 C   0  0  0  0  0  0  0  0  0  0  0  0
    5.2122    0.0755    0.0000 C   0  0  0  0  0  0  0  0  0  0  0  0
    3.9828    5.2050    0.0000 C   0  0  0  0  0  0  0  0  0  0  0  0
    6.0620    4.8622    0.0000 C   0  0  0  0  0  0  0  0  0  0  0  0
    6.5590   -3.6595    0.0000 C   0  0  0  0  0  0  0  0  0  0  0  0
   10.1142   -3.6732    0.0000 C   0  0  0  0  0  0  0  0  0  0  0  0
   11.7443   -1.9720    0.0000 C   0  0  0  0  0  0  0  0  0  0  0  0
    7.0497    5.0186    0.0000 C   0  0  0  0  0  0  0  0  0  0  0  0
    3.6312   -0.6317    0.0000 C   0  0  0  0  0  0  0  0  0  0  0  0
    5.6873   -4.1494    0.0000 C   0  0  0  0  0  0  0  0  0  0  0  0
   10.9822   -4.1698    0.0000 C   0  0  0  0  0  0  0  0  0  0  0  0
    4.8271   -3.6395    0.0000 C   0  0  0  0  0  0  0  0  0  0  0  0
    5.6757   -5.1494    0.0000 C   0  0  0  0  0  0  0  0  0  0  0  0
    4.8040   -5.6393    0.0000 C   0  0  0  0  0  0  0  0  0  0  0  0
    5.9311   -0.0940    0.0000 H   0  0  0  0  0  0  0  0  0  0  0  0
    5.6044    3.3087    0.0000 H   0  0  0  0  0  0  0  0  0  0  0  0
    5.1355    0.6497    0.0000 H   0  0  0  0  0  0  0  0  0  0  0  0
    8.3244   -1.4781    0.0000 H   0  0  0  0  0  0  0  0  0  0  0  0
    7.1028    1.3798    0.0000 H   0  0  0  0  0  0  0  0  0  0  0  0
    4.2633    0.2907    0.0000 H   0  0  0  0  0  0  0  0  0  0  0  0
    3.6057    1.0833    0.0000 H   0  0  0  0  0  0  0  0  0  0  0  0
    8.4834    1.2069    0.0000 H   0  0  0  0  0  0  0  0  0  0  0  0
    7.4364   -2.7896    0.0000 H   0  0  0  0  0  0  0  0  0  0  0  0
    6.2248   -0.7458    0.0000 H   0  0  0  0  0  0  0  0  0  0  0  0
    5.3514   -0.6694    0.0000 H   0  0  0  0  0  0  0  0  0  0  0  0
    5.4278    0.2041    0.0000 H   0  0  0  0  0  0  0  0  0  0  0  0
    7.3175   -2.1931    0.0000 H   0  0  0  0  0  0  0  0  0  0  0  0
    6.5618   -2.4411    0.0000 H   0  0  0  0  0  0  0  0  0  0  0  0
    6.5027    3.4340    0.0000 H   0  0  0  0  0  0  0  0  0  0  0  0
    7.2210    3.9369    0.0000 H   0  0  0  0  0  0  0  0  0  0  0  0
    7.7239    3.2187    0.0000 H   0  0  0  0  0  0  0  0  0  0  0  0
    2.8888    3.4828    0.0000 H   0  0  0  0  0  0  0  0  0  0  0  0
    9.2436   -2.7965    0.0000 H   0  0  0  0  0  0  0  0  0  0  0  0
    8.7377   -3.1733    0.0000 H   0  0  0  0  0  0  0  0  0  0  0  0
    7.9394   -3.1702    0.0000 H   0  0  0  0  0  0  0  0  0  0  0  0
   10.3052    0.0547    0.0000 H   0  0  0  0  0  0  0  0  0  0  0  0
   10.2691   -0.7616    0.0000 H   0  0  0  0  0  0  0  0  0  0  0  0
    8.8070    1.3026    0.0000 H   0  0  0  0  0  0  0  0  0  0  0  0
    5.4209    5.0368    0.0000 H   0  0  0  0  0  0  0  0  0  0  0  0
    4.3750   -1.5104    0.0000 H   0  0  0  0  0  0  0  0  0  0  0  0
    3.8858    5.8173    0.0000 H   0  0  0  0  0  0  0  0  0  0  0  0
   11.7371   -1.3520    0.0000 H   0  0  0  0  0  0  0  0  0  0  0  0
   12.3642   -1.9648    0.0000 H   0  0  0  0  0  0  0  0  0  0  0  0
   11.7514   -2.5920    0.0000 H   0  0  0  0  0  0  0  0  0  0  0  0
    6.9527    5.6310    0.0000 H   0  0  0  0  0  0  0  0  0  0  0  0
    7.6621    5.1156    0.0000 H   0  0  0  0  0  0  0  0  0  0  0  0
    7.1467    4.4062    0.0000 H   0  0  0  0  0  0  0  0  0  0  0  0
    4.1334   -0.9952    0.0000 H   0  0  0  0  0  0  0  0  0  0  0  0
    3.2676   -1.1339    0.0000 H   0  0  0  0  0  0  0  0  0  0  0  0
    3.1289   -0.2681    0.0000 H   0  0  0  0  0  0  0  0  0  0  0  0
   11.2901   -3.6317    0.0000 H   0  0  0  0  0  0  0  0  0  0  0  0
   11.5203   -4.4778    0.0000 H   0  0  0  0  0  0  0  0  0  0  0  0
   10.6743   -4.7080    0.0000 H   0  0  0  0  0  0  0  0  0  0  0  0
    4.5109   -4.1728    0.0000 H   0  0  0  0  0  0  0  0  0  0  0  0
    4.2938   -3.3233    0.0000 H   0  0  0  0  0  0  0  0  0  0  0  0
    5.1433   -3.1062    0.0000 H   0  0  0  0  0  0  0  0  0  0  0  0
    6.2090   -5.4656    0.0000 H   0  0  0  0  0  0  0  0  0  0  0  0
    5.1077   -6.1798    0.0000 H   0  0  0  0  0  0  0  0  0  0  0  0
    4.2635   -5.9431    0.0000 H   0  0  0  0  0  0  0  0  0  0  0  0
    4.5002   -5.0988    0.0000 H   0  0  0  0  0  0  0  0  0  0  0  0
 18  1  1  6  0  0  0
  1 20  1  0  0  0  0
  2 24  1  0  0  0  0
  2 36  1  0  0  0  0
  3 28  1  0  0  0  0
  3 39  1  0  0  0  0
  4 31  1  0  0  0  0
  4 35  1  0  0  0  0
 26  5  1  6  0  0  0
  5 78  1  0  0  0  0
 30  6  1  6  0  0  0
  6 44  1  0  0  0  0
 32  7  1  6  0  0  0
  7 45  1  0  0  0  0
 31  8  1  1  0  0  0
  8 80  1  0  0  0  0
  9 36  1  0  0  0  0
  9 43  1  0  0  0  0
 37 10  1  6  0  0  0
 10 46  1  0  0  0  0
 11 41  1  0  0  0  0
 11 47  1  0  0  0  0
 12 42  1  0  0  0  0
 12 49  1  0  0  0  0
 13 41  2  0  0  0  0
 14 42  2  0  0  0  0
 15 44  2  0  0  0  0
 16 45  2  0  0  0  0
 17 46  2  0  0  0  0
 18 19  1  0  0  0  0
 18 20  1  0  0  0  0
 18 24  1  0  0  0  0
 19 21  1  0  0  0  0
 19 26  1  0  0  0  0
 19 33  1  1  0  0  0
 20 23  1  0  0  0  0
 20 34  1  1  0  0  0
 21 22  1  0  0  0  0
 21 31  1  0  0  0  0
 21 55  1  6  0  0  0
 22 25  1  0  0  0  0
 22 32  1  0  0  0  0
 22 35  1  1  0  0  0
 23 27  1  0  0  0  0
 23 30  1  0  0  0  0
 23 56  1  1  0  0  0
 24 27  1  0  0  0  0
 24 57  1  1  0  0  0
 25 28  1  0  0  0  0
 25 29  1  0  0  0  0
 25 58  1  6  0  0  0
 26 28  1  0  0  0  0
 26 59  1  0  0  0  0
 27 60  1  0  0  0  0
 27 61  1  0  0  0  0
 28 62  1  1  0  0  0
 29 37  1  0  0  0  0
 29 39  1  0  0  0  0
 29 41  1  1  0  0  0
 30 36  1  0  0  0  0
 30 40  1  0  0  0  0
 31 42  1  0  0  0  0
 32 38  1  0  0  0  0
 32 63  1  0  0  0  0
 33 64  1  0  0  0  0
 33 65  1  0  0  0  0
 33 66  1  0  0  0  0
 34 69  1  0  0  0  0
 34 70  1  0  0  0  0
 34 71  1  0  0  0  0
 35 67  1  0  0  0  0
 35 68  1  0  0  0  0
 36 72  1  1  0  0  0
 37 38  1  0  0  0  0
 37 73  1  0  0  0  0
 38 74  1  0  0  0  0
 38 75  1  0  0  0  0
 39 76  1  0  0  0  0
 39 77  1  0  0  0  0
 40 43  2  0  0  0  0
 40 79  1  0  0  0  0
 43 81  1  0  0  0  0
 44 48  1  0  0  0  0
 45 50  1  0  0  0  0
 46 51  1  0  0  0  0
 47 82  1  0  0  0  0
 47 83  1  0  0  0  0
 47 84  1  0  0  0  0
 48 85  1  0  0  0  0
 48 86  1  0  0  0  0
 48 87  1  0  0  0  0
 49 88  1  0  0  0  0
 49 89  1  0  0  0  0
 49 90  1  0  0  0  0
 50 52  1  0  0  0  0
 50 53  2  0  0  0  0
 51 91  1  0  0  0  0
 51 92  1  0  0  0  0
 51 93  1  0  0  0  0
 52 94  1  0  0  0  0
 52 95  1  0  0  0  0
 52 96  1  0  0  0  0
 53 54  1  0  0  0  0
 53 97  1  0  0  0  0
 54 98  1  0  0  0  0
 54 99  1  0  0  0  0
 54100  1  0  0  0  0
M  END
> <PUBCHEM_COMPOUND_CID>
102079638

> <PUBCHEM_COMPOUND_CANONICALIZED>
1

> <PUBCHEM_CACTVS_COMPLEXITY>
1780

> <PUBCHEM_CACTVS_HBOND_ACCEPTOR>
17

> <PUBCHEM_CACTVS_HBOND_DONOR>
2

> <PUBCHEM_CACTVS_ROTATABLE_BOND>
12

> <PUBCHEM_CACTVS_SUBSKEYS>
AAADcfB8PgAAAAAAAAAAAAAAEgAAAaJECAA0aIEABIAAAEjAAAAAGgAACAAAD1SwgAMCCAAABgCIAiDSCAIACAAgIAAICAFAAEgRFBYAIQQiUAAF4AAHIYHK7PzPgAAAAAAAAADAAAYQADCAAYQADCAAAA==

> <PUBCHEM_IUPAC_OPENEYE_NAME>
dimethyl (1S,4S,5R,6S,7S,8R,11S,12R,14S,15R)-12-acetoxy-6-[(1S,2R,6S,8S,9R,11S)-2-acetoxy-11-methyl-5,7,10-trioxatetracyclo[6.3.1.02,6.09,11]dodec-3-en-9-yl]-4,7-dihydroxy-6-methyl-14-[(E)-2-methylbut-2-enoyl]oxy-3,9-dioxatetracyclo[6.6.1.01,5.011,15]pentadecane-4,11-dicarboxylate

> <PUBCHEM_IUPAC_CAS_NAME>
(1S,4S,5R,6S,7S,8R,11S,12R,14S,15R)-12-acetyloxy-6-[(1S,2R,6S,8S,9R,11S)-2-acetyloxy-11-methyl-5,7,10-trioxatetracyclo[6.3.1.02,6.09,11]dodec-3-en-9-yl]-4,7-dihydroxy-6-methyl-14-[(E)-2-methyl-1-oxobut-2-enoxy]-3,9-dioxatetracyclo[6.6.1.01,5.011,15]pentadecane-4,11-dicarboxylic acid dimethyl ester

> <PUBCHEM_IUPAC_NAME_MARKUP>
dimethyl (1<I>S</I>,4<I>S</I>,5<I>R</I>,6<I>S</I>,7<I>S</I>,8<I>R</I>,11<I>S</I>,12<I>R</I>,14<I>S</I>,15<I>R</I>)-12-acetyloxy-6-[(1<I>S</I>,2<I>R</I>,6<I>S</I>,8<I>S</I>,9<I>R</I>,11<I>S</I>)-2-acetyloxy-11-methyl-5,7,10-trioxatetracyclo[6.3.1.0<SUP>2,6</SUP>.0<SUP>9,11</SUP>]dodec-3-en-9-yl]-4,7-dihydroxy-6-methyl-14-[(<I>E</I>)-2-methylbut-2-enoyl]oxy-3,9-dioxatetracyclo[6.6.1.0<SUP>1,5</SUP>.0<SUP>11,15</SUP>]pentadecane-4,11-dicarboxylate

> <PUBCHEM_IUPAC_NAME>
dimethyl (1S,4S,5R,6S,7S,8R,11S,12R,14S,15R)-12-acetyloxy-6-[(1S,2R,6S,8S,9R,11S)-2-acetyloxy-11-methyl-5,7,10-trioxatetracyclo[6.3.1.02,6.09,11]dodec-3-en-9-yl]-4,7-dihydroxy-6-methyl-14-[(E)-2-methylbut-2-enoyl]oxy-3,9-dioxatetracyclo[6.6.1.01,5.011,15]pentadecane-4,11-dicarboxylate

> <PUBCHEM_IUPAC_SYSTEMATIC_NAME>
dimethyl (1S,4S,5R,6S,7S,8R,11S,12R,14S,15R)-12-acetyloxy-6-[(1S,2R,6S,8S,9R,11S)-2-acetyloxy-11-methyl-5,7,10-trioxatetracyclo[6.3.1.02,6.09,11]dodec-3-en-9-yl]-6-methyl-14-[(E)-2-methylbut-2-enoyl]oxy-4,7-bis(oxidanyl)-3,9-dioxatetracyclo[6.6.1.01,5.011,15]pentadecane-4,11-dicarboxylate

> <PUBCHEM_IUPAC_TRADITIONAL_NAME>
(1S,4S,5R,6S,7S,8R,11S,12R,14S,15R)-12-acetoxy-6-[(1S,2R,6S,8S,9R,11S)-2-acetoxy-11-methyl-5,7,10-trioxatetracyclo[6.3.1.02,6.09,11]dodec-3-en-9-yl]-4,7-dihydroxy-6-methyl-14-[(E)-2-methylbut-2-enoyl]oxy-3,9-dioxatetracyclo[6.6.1.01,5.011,15]pentadecane-4,11-dicarboxylic acid dimethyl ester

> <PUBCHEM_IUPAC_INCHI>
InChI=1S/C37H46O17/c1-9-16(2)26(41)51-20-13-21(50-17(3)38)34(28(42)45-7)14-48-23-24(34)33(20)15-49-36(44,29(43)46-8)27(33)31(5,25(23)40)37-22-12-19(32(37,6)54-37)35(53-18(4)39)10-11-47-30(35)52-22/h9-11,19-25,27,30,40,44H,12-15H2,1-8H3/b16-9+/t19-,20-,21+,22-,23+,24+,25+,27-,30-,31+,32-,33-,34-,35+,36-,37-/m0/s1

> <PUBCHEM_IUPAC_INCHIKEY>
STZXMSNIUULCLH-TXDAZIGMSA-N

> <PUBCHEM_XLOGP3_AA>
0

> <PUBCHEM_EXACT_MASS>
762.27349999

> <PUBCHEM_MOLECULAR_FORMULA>
C37H46O17

> <PUBCHEM_MOLECULAR_WEIGHT>
762.7

> <PUBCHEM_OPENEYE_CAN_SMILES>
CC=C(C)C(=O)OC1CC(C2(COC3C2C14COC(C4C(C3O)(C)C56C7CC(C5(O6)C)C8(C=COC8O7)OC(=O)C)(C(=O)OC)O)C(=O)OC)OC(=O)C

> <PUBCHEM_OPENEYE_ISO_SMILES>
C/C=C(\C)/C(=O)O[C@H]1C[C@H]([C@]2(CO[C@@H]3[C@@H]2[C@]14CO[C@@]([C@H]4[C@]([C@@H]3O)(C)[C@@]56[C@@H]7C[C@@H]([C@@]5(O6)C)[C@@]8(C=CO[C@H]8O7)OC(=O)C)(C(=O)OC)O)C(=O)OC)OC(=O)C

> <PUBCHEM_CACTVS_TPSA>
221

> <PUBCHEM_MONOISOTOPIC_WEIGHT>
762.27349999

> <PUBCHEM_TOTAL_CHARGE>
0

> <PUBCHEM_HEAVY_ATOM_COUNT>
54

> <PUBCHEM_ATOM_DEF_STEREO_COUNT>
16

> <PUBCHEM_ATOM_UDEF_STEREO_COUNT>
0

> <PUBCHEM_BOND_DEF_STEREO_COUNT>
1

> <PUBCHEM_BOND_UDEF_STEREO_COUNT>
0

> <PUBCHEM_ISOTOPIC_ATOM_COUNT>
0

> <PUBCHEM_COMPONENT_COUNT>
1

> <PUBCHEM_CACTVS_TAUTO_COUNT>
-1

> <PUBCHEM_COORDINATE_TYPE>
1
5
255

> <PUBCHEM_BONDANNOTATIONS>
18  1  6
37  10  6
19  33  5
20  34  5
21  55  6
22  35  5
23  56  5
24  57  5
25  58  6
28  62  5
29  41  5
36  72  5
26  5  6
30  6  6
32  7  6
31  8  5

$$$$
