 
  -OEChem-10192103472D

 24 24  0     0  0  0  0  0  0999 V2000
    5.4641    1.8450    0.0000 O   0  0  0  0  0  0  0  0  0  0  0  0
    2.8660    0.3450    0.0000 O   0  0  0  0  0  0  0  0  0  0  0  0
    3.7320    1.8450    0.0000 O   0  0  0  0  0  0  0  0  0  0  0  0
    8.0622    0.3450    0.0000 O   0  0  0  0  0  0  0  0  0  0  0  0
    5.4641   -1.1550    0.0000 C   0  0  0  0  0  0  0  0  0  0  0  0
    4.5981    0.3450    0.0000 C   0  0  0  0  0  0  0  0  0  0  0  0
    4.5981   -0.6550    0.0000 C   0  0  0  0  0  0  0  0  0  0  0  0
    6.3301    0.3450    0.0000 C   0  0  0  0  0  0  0  0  0  0  0  0
    5.4641    0.8450    0.0000 C   0  0  0  0  0  0  0  0  0  0  0  0
    6.3301   -0.6550    0.0000 C   0  0  0  0  0  0  0  0  0  0  0  0
    5.4641   -2.1550    0.0000 C   0  0  0  0  0  0  0  0  0  0  0  0
    3.7320    0.8450    0.0000 C   0  0  0  0  0  0  0  0  0  0  0  0
    7.1962    0.8450    0.0000 C   0  0  0  0  0  0  0  0  0  0  0  0
    2.0000    0.8450    0.0000 C   0  0  0  0  0  0  0  0  0  0  0  0
    4.0611   -0.9650    0.0000 H   0  0  0  0  0  0  0  0  0  0  0  0
    6.8671   -0.9650    0.0000 H   0  0  0  0  0  0  0  0  0  0  0  0
    4.8441   -2.1550    0.0000 H   0  0  0  0  0  0  0  0  0  0  0  0
    5.4641   -2.7750    0.0000 H   0  0  0  0  0  0  0  0  0  0  0  0
    6.0841   -2.1550    0.0000 H   0  0  0  0  0  0  0  0  0  0  0  0
    7.1962    1.4650    0.0000 H   0  0  0  0  0  0  0  0  0  0  0  0
    6.0010    2.1550    0.0000 H   0  0  0  0  0  0  0  0  0  0  0  0
    2.3100    1.3819    0.0000 H   0  0  0  0  0  0  0  0  0  0  0  0
    1.4631    1.1550    0.0000 H   0  0  0  0  0  0  0  0  0  0  0  0
    1.6900    0.3081    0.0000 H   0  0  0  0  0  0  0  0  0  0  0  0
  1  9  1  0  0  0  0
  1 21  1  0  0  0  0
  2 12  1  0  0  0  0
  2 14  1  0  0  0  0
  3 12  2  0  0  0  0
  4 13  2  0  0  0  0
  5  7  1  0  0  0  0
  5 10  2  0  0  0  0
  5 11  1  0  0  0  0
  6  7  2  0  0  0  0
  6  9  1  0  0  0  0
  6 12  1  0  0  0  0
  7 15  1  0  0  0  0
  8  9  2  0  0  0  0
  8 10  1  0  0  0  0
  8 13  1  0  0  0  0
 10 16  1  0  0  0  0
 11 17  1  0  0  0  0
 11 18  1  0  0  0  0
 11 19  1  0  0  0  0
 13 20  1  0  0  0  0
 14 22  1  0  0  0  0
 14 23  1  0  0  0  0
 14 24  1  0  0  0  0
M  END
> <PUBCHEM_COMPOUND_CID>
53684887

> <PUBCHEM_COMPOUND_CANONICALIZED>
1

> <PUBCHEM_CACTVS_COMPLEXITY>
226

> <PUBCHEM_CACTVS_HBOND_ACCEPTOR>
4

> <PUBCHEM_CACTVS_HBOND_DONOR>
1

> <PUBCHEM_CACTVS_ROTATABLE_BOND>
3

> <PUBCHEM_CACTVS_SUBSKEYS>
AAADccBwOAAAAAAAAAAAAAAAAAAAAAAAAAAwAAAAAAAAAAABAAAAGgAACAAADASgmAIyDoAABgCIAijSiAACAAAkIAAAiAEECMgIJzaCNRqAcUAl4BEIuYeIzmCOIAACAAAIAABAAAQAABAAAAAAAAAAAA==

> <PUBCHEM_IUPAC_OPENEYE_NAME>
methyl 3-formyl-2-hydroxy-5-methyl-benzoate

> <PUBCHEM_IUPAC_CAS_NAME>
3-formyl-2-hydroxy-5-methylbenzoic acid methyl ester

> <PUBCHEM_IUPAC_NAME_MARKUP>
methyl 3-formyl-2-hydroxy-5-methylbenzoate

> <PUBCHEM_IUPAC_NAME>
methyl 3-formyl-2-hydroxy-5-methylbenzoate

> <PUBCHEM_IUPAC_SYSTEMATIC_NAME>
methyl 3-methanoyl-5-methyl-2-oxidanyl-benzoate

> <PUBCHEM_IUPAC_TRADITIONAL_NAME>
3-formyl-2-hydroxy-5-methyl-benzoic acid methyl ester

> <PUBCHEM_IUPAC_INCHI>
InChI=1S/C10H10O4/c1-6-3-7(5-11)9(12)8(4-6)10(13)14-2/h3-5,12H,1-2H3

> <PUBCHEM_IUPAC_INCHIKEY>
BJEOEFZRLGSXFU-UHFFFAOYSA-N

> <PUBCHEM_XLOGP3_AA>
1.8

> <PUBCHEM_EXACT_MASS>
194.05790880

> <PUBCHEM_MOLECULAR_FORMULA>
C10H10O4

> <PUBCHEM_MOLECULAR_WEIGHT>
194.18

> <PUBCHEM_OPENEYE_CAN_SMILES>
CC1=CC(=C(C(=C1)C(=O)OC)O)C=O

> <PUBCHEM_OPENEYE_ISO_SMILES>
CC1=CC(=C(C(=C1)C(=O)OC)O)C=O

> <PUBCHEM_CACTVS_TPSA>
63.6

> <PUBCHEM_MONOISOTOPIC_WEIGHT>
194.05790880

> <PUBCHEM_TOTAL_CHARGE>
0

> <PUBCHEM_HEAVY_ATOM_COUNT>
14

> <PUBCHEM_ATOM_DEF_STEREO_COUNT>
0

> <PUBCHEM_ATOM_UDEF_STEREO_COUNT>
0

> <PUBCHEM_BOND_DEF_STEREO_COUNT>
0

> <PUBCHEM_BOND_UDEF_STEREO_COUNT>
0

> <PUBCHEM_ISOTOPIC_ATOM_COUNT>
0

> <PUBCHEM_COMPONENT_COUNT>
1

> <PUBCHEM_CACTVS_TAUTO_COUNT>
-1

> <PUBCHEM_COORDINATE_TYPE>
1
5
255

> <PUBCHEM_BONDANNOTATIONS>
5  10  8
5  7  8
6  7  8
6  9  8
8  10  8
8  9  8

$$$$
