 
  -OEChem-10192104102D

 42 43  0     1  0  0  0  0  0999 V2000
    8.0622   -0.5950    0.0000 O   0  0  0  0  0  0  0  0  0  0  0  0
    9.7942    1.4050    0.0000 O   0  0  0  0  0  0  0  0  0  0  0  0
    8.0622    2.4050    0.0000 O   0  0  0  0  0  0  0  0  0  0  0  0
   10.6603   -0.0950    0.0000 O   0  0  0  0  0  0  0  0  0  0  0  0
    5.4641   -0.0950    0.0000 O   0  0  0  0  0  0  0  0  0  0  0  0
   10.6603   -2.0950    0.0000 O   0  0  0  0  0  0  0  0  0  0  0  0
    6.3301   -1.5950    0.0000 O   0  0  0  0  0  0  0  0  0  0  0  0
    8.9282   -0.0950    0.0000 C   0  0  1  0  0  0  0  0  0  0  0  0
    8.9282    0.9050    0.0000 C   0  0  1  0  0  0  0  0  0  0  0  0
    8.0622    1.4050    0.0000 C   0  0  1  0  0  0  0  0  0  0  0  0
    7.1962    0.9050    0.0000 C   0  0  0  0  0  0  0  0  0  0  0  0
    7.1962   -0.0950    0.0000 C   0  0  1  0  0  0  0  0  0  0  0  0
    9.7942   -0.5950    0.0000 C   0  0  1  0  0  0  0  0  0  0  0  0
    9.7942   -1.5950    0.0000 C   0  0  0  0  0  0  0  0  0  0  0  0
    6.3301   -0.5950    0.0000 C   0  0  0  0  0  0  0  0  0  0  0  0
    4.5981   -0.5950    0.0000 C   0  0  0  0  0  0  0  0  0  0  0  0
    3.7320   -0.0950    0.0000 C   0  0  0  0  0  0  0  0  0  0  0  0
    3.7320    0.9050    0.0000 C   0  0  0  0  0  0  0  0  0  0  0  0
    2.8660   -0.5950    0.0000 C   0  0  0  0  0  0  0  0  0  0  0  0
    2.8660    1.4050    0.0000 C   0  0  0  0  0  0  0  0  0  0  0  0
    2.0000   -0.0950    0.0000 C   0  0  0  0  0  0  0  0  0  0  0  0
    2.0000    0.9050    0.0000 C   0  0  0  0  0  0  0  0  0  0  0  0
    8.9282   -0.9450    0.0000 H   0  0  0  0  0  0  0  0  0  0  0  0
    9.4651    0.5950    0.0000 H   0  0  0  0  0  0  0  0  0  0  0  0
    7.5252    1.7150    0.0000 H   0  0  0  0  0  0  0  0  0  0  0  0
    6.9841    1.4876    0.0000 H   0  0  0  0  0  0  0  0  0  0  0  0
    6.5856    0.7973    0.0000 H   0  0  0  0  0  0  0  0  0  0  0  0
    7.1962   -0.7150    0.0000 H   0  0  0  0  0  0  0  0  0  0  0  0
    9.7942    0.0250    0.0000 H   0  0  0  0  0  0  0  0  0  0  0  0
    9.1836   -1.4873    0.0000 H   0  0  0  0  0  0  0  0  0  0  0  0
    9.5822   -2.1776    0.0000 H   0  0  0  0  0  0  0  0  0  0  0  0
    9.7942    2.0250    0.0000 H   0  0  0  0  0  0  0  0  0  0  0  0
    7.5252    2.7150    0.0000 H   0  0  0  0  0  0  0  0  0  0  0  0
   11.1972   -0.4050    0.0000 H   0  0  0  0  0  0  0  0  0  0  0  0
   10.6603   -2.7150    0.0000 H   0  0  0  0  0  0  0  0  0  0  0  0
    4.1996   -1.0700    0.0000 H   0  0  0  0  0  0  0  0  0  0  0  0
    4.9966   -1.0700    0.0000 H   0  0  0  0  0  0  0  0  0  0  0  0
    4.2690    1.2150    0.0000 H   0  0  0  0  0  0  0  0  0  0  0  0
    2.8660   -1.2150    0.0000 H   0  0  0  0  0  0  0  0  0  0  0  0
    2.8660    2.0250    0.0000 H   0  0  0  0  0  0  0  0  0  0  0  0
    1.4631   -0.4050    0.0000 H   0  0  0  0  0  0  0  0  0  0  0  0
    1.4631    1.2150    0.0000 H   0  0  0  0  0  0  0  0  0  0  0  0
  1  8  1  0  0  0  0
  1 12  1  0  0  0  0
  9  2  1  1  0  0  0
  2 32  1  0  0  0  0
 10  3  1  1  0  0  0
  3 33  1  0  0  0  0
 13  4  1  6  0  0  0
  4 34  1  0  0  0  0
  5 15  1  0  0  0  0
  5 16  1  0  0  0  0
  6 14  1  0  0  0  0
  6 35  1  0  0  0  0
  7 15  2  0  0  0  0
  8  9  1  0  0  0  0
  8 13  1  0  0  0  0
  8 23  1  6  0  0  0
  9 10  1  0  0  0  0
  9 24  1  0  0  0  0
 10 11  1  0  0  0  0
 10 25  1  0  0  0  0
 11 12  1  0  0  0  0
 11 26  1  0  0  0  0
 11 27  1  0  0  0  0
 12 15  1  6  0  0  0
 12 28  1  0  0  0  0
 13 14  1  0  0  0  0
 13 29  1  0  0  0  0
 14 30  1  0  0  0  0
 14 31  1  0  0  0  0
 16 17  1  0  0  0  0
 16 36  1  0  0  0  0
 16 37  1  0  0  0  0
 17 18  2  0  0  0  0
 17 19  1  0  0  0  0
 18 20  1  0  0  0  0
 18 38  1  0  0  0  0
 19 21  2  0  0  0  0
 19 39  1  0  0  0  0
 20 22  2  0  0  0  0
 20 40  1  0  0  0  0
 21 22  1  0  0  0  0
 21 41  1  0  0  0  0
 22 42  1  0  0  0  0
M  END
> <PUBCHEM_COMPOUND_CID>
13886267

> <PUBCHEM_COMPOUND_CANONICALIZED>
1

> <PUBCHEM_CACTVS_COMPLEXITY>
356

> <PUBCHEM_CACTVS_HBOND_ACCEPTOR>
7

> <PUBCHEM_CACTVS_HBOND_DONOR>
4

> <PUBCHEM_CACTVS_ROTATABLE_BOND>
6

> <PUBCHEM_CACTVS_SUBSKEYS>
AAADceBwOAAAAAAAAAAAAAAAAAAAAAAAAAA0QAAAAAAAAAABAAAAGgAACAAADBSgmAIwCIAABgCIAiDSCAICAAAgAAAIiAFACIgJNjKAMRyCcAAlwAELqAfK7KzOAAAAAAAAAAAAAAAAAAAAAAAAAAAAAA==

> <PUBCHEM_IUPAC_OPENEYE_NAME>
benzyl (2S,4R,5R,6R)-6-[(1R)-1,2-dihydroxyethyl]-4,5-dihydroxy-tetrahydropyran-2-carboxylate

> <PUBCHEM_IUPAC_CAS_NAME>
(2S,4R,5R,6R)-6-[(1R)-1,2-dihydroxyethyl]-4,5-dihydroxy-2-oxanecarboxylic acid (phenylmethyl) ester

> <PUBCHEM_IUPAC_NAME_MARKUP>
benzyl (2<I>S</I>,4<I>R</I>,5<I>R</I>,6<I>R</I>)-6-[(1<I>R</I>)-1,2-dihydroxyethyl]-4,5-dihydroxyoxane-2-carboxylate

> <PUBCHEM_IUPAC_NAME>
benzyl (2S,4R,5R,6R)-6-[(1R)-1,2-dihydroxyethyl]-4,5-dihydroxyoxane-2-carboxylate

> <PUBCHEM_IUPAC_SYSTEMATIC_NAME>
(phenylmethyl) (2S,4R,5R,6R)-6-[(1R)-1,2-bis(oxidanyl)ethyl]-4,5-bis(oxidanyl)oxane-2-carboxylate

> <PUBCHEM_IUPAC_TRADITIONAL_NAME>
(2S,4R,5R,6R)-6-[(1R)-1,2-dihydroxyethyl]-4,5-dihydroxy-tetrahydropyran-2-carboxylic acid benzyl ester

> <PUBCHEM_IUPAC_INCHI>
InChI=1S/C15H20O7/c16-7-11(18)14-13(19)10(17)6-12(22-14)15(20)21-8-9-4-2-1-3-5-9/h1-5,10-14,16-19H,6-8H2/t10-,11-,12+,13-,14-/m1/s1

> <PUBCHEM_IUPAC_INCHIKEY>
VFCLPFMDHNOJNV-RKQHYHRCSA-N

> <PUBCHEM_XLOGP3_AA>
-0.3

> <PUBCHEM_EXACT_MASS>
312.12090297

> <PUBCHEM_MOLECULAR_FORMULA>
C15H20O7

> <PUBCHEM_MOLECULAR_WEIGHT>
312.31

> <PUBCHEM_OPENEYE_CAN_SMILES>
C1C(C(C(OC1C(=O)OCC2=CC=CC=C2)C(CO)O)O)O

> <PUBCHEM_OPENEYE_ISO_SMILES>
C1[C@H]([C@H]([C@H](O[C@@H]1C(=O)OCC2=CC=CC=C2)[C@@H](CO)O)O)O

> <PUBCHEM_CACTVS_TPSA>
116

> <PUBCHEM_MONOISOTOPIC_WEIGHT>
312.12090297

> <PUBCHEM_TOTAL_CHARGE>
0

> <PUBCHEM_HEAVY_ATOM_COUNT>
22

> <PUBCHEM_ATOM_DEF_STEREO_COUNT>
5

> <PUBCHEM_ATOM_UDEF_STEREO_COUNT>
0

> <PUBCHEM_BOND_DEF_STEREO_COUNT>
0

> <PUBCHEM_BOND_UDEF_STEREO_COUNT>
0

> <PUBCHEM_ISOTOPIC_ATOM_COUNT>
0

> <PUBCHEM_COMPONENT_COUNT>
1

> <PUBCHEM_CACTVS_TAUTO_COUNT>
-1

> <PUBCHEM_COORDINATE_TYPE>
1
5
255

> <PUBCHEM_BONDANNOTATIONS>
12  15  6
17  18  8
17  19  8
18  20  8
19  21  8
9  2  5
20  22  8
21  22  8
10  3  5
13  4  6
8  23  6

$$$$
