 
  -OEChem-10192104112D

 50 53  0     1  0  0  0  0  0999 V2000
    9.7082    0.6254    0.0000 O   0  0  0  0  0  0  0  0  0  0  0  0
    9.0532    3.3071    0.0000 O   0  0  0  0  0  0  0  0  0  0  0  0
    5.9670    1.0617    0.0000 O   0  0  0  0  0  0  0  0  0  0  0  0
    6.8671   -0.4626    0.0000 O   0  0  0  0  0  0  0  0  0  0  0  0
    8.5136   -0.9786    0.0000 O   0  0  0  0  0  0  0  0  0  0  0  0
    5.1350   -0.4626    0.0000 O   0  0  0  0  0  0  0  0  0  0  0  0
    6.8671   -2.4626    0.0000 O   0  0  0  0  0  0  0  0  0  0  0  0
    5.1350   -3.4626    0.0000 O   0  0  0  0  0  0  0  0  0  0  0  0
    3.4030   -2.4626    0.0000 O   0  0  0  0  0  0  0  0  0  0  0  0
    2.5369   -0.9626    0.0000 O   0  0  0  0  0  0  0  0  0  0  0  0
    8.7145    0.7417    0.0000 C   0  0  1  0  0  0  0  0  0  0  0  0
    9.3116    1.5439    0.0000 C   0  0  1  0  0  0  0  0  0  0  0  0
    7.7671    1.0617    0.0000 C   0  0  2  0  0  0  0  0  0  0  0  0
    8.7333    2.3596    0.0000 C   0  0  2  0  0  0  0  0  0  0  0  0
    7.7787    2.0616    0.0000 C   0  0  2  0  0  0  0  0  0  0  0  0
    8.1174   -0.0604    0.0000 C   0  0  0  0  0  0  0  0  0  0  0  0
    6.8671    0.5374    0.0000 C   0  0  1  0  0  0  0  0  0  0  0  0
    9.9088    2.3460    0.0000 C   0  0  0  0  0  0  0  0  0  0  0  0
    6.8910    2.6066    0.0000 C   0  0  0  0  0  0  0  0  0  0  0  0
    5.9790    2.1033    0.0000 C   0  0  0  0  0  0  0  0  0  0  0  0
    6.0010   -0.9626    0.0000 C   0  0  2  0  0  0  0  0  0  0  0  0
    6.0010   -1.9626    0.0000 C   0  0  1  0  0  0  0  0  0  0  0  0
    5.1350   -2.4626    0.0000 C   0  0  2  0  0  0  0  0  0  0  0  0
    4.2690   -0.9626    0.0000 C   0  0  1  0  0  0  0  0  0  0  0  0
    4.2690   -1.9626    0.0000 C   0  0  1  0  0  0  0  0  0  0  0  0
    3.4030   -0.4626    0.0000 C   0  0  0  0  0  0  0  0  0  0  0  0
    7.8527    0.2160    0.0000 H   0  0  0  0  0  0  0  0  0  0  0  0
    9.3467    2.4495    0.0000 H   0  0  0  0  0  0  0  0  0  0  0  0
    7.8838    2.9051    0.0000 H   0  0  0  0  0  0  0  0  0  0  0  0
    7.6919    0.3905    0.0000 H   0  0  0  0  0  0  0  0  0  0  0  0
    7.5995   -0.4012    0.0000 H   0  0  0  0  0  0  0  0  0  0  0  0
    7.4046    0.2285    0.0000 H   0  0  0  0  0  0  0  0  0  0  0  0
   10.4061    1.9758    0.0000 H   0  0  0  0  0  0  0  0  0  0  0  0
   10.2790    2.8434    0.0000 H   0  0  0  0  0  0  0  0  0  0  0  0
    9.4114    2.7162    0.0000 H   0  0  0  0  0  0  0  0  0  0  0  0
    6.9053    3.2264    0.0000 H   0  0  0  0  0  0  0  0  0  0  0  0
    8.6438    3.7726    0.0000 H   0  0  0  0  0  0  0  0  0  0  0  0
    5.4470    2.4215    0.0000 H   0  0  0  0  0  0  0  0  0  0  0  0
    9.1294   -1.0506    0.0000 H   0  0  0  0  0  0  0  0  0  0  0  0
    6.0010   -0.3426    0.0000 H   0  0  0  0  0  0  0  0  0  0  0  0
    6.0010   -2.5826    0.0000 H   0  0  0  0  0  0  0  0  0  0  0  0
    4.5981   -2.7726    0.0000 H   0  0  0  0  0  0  0  0  0  0  0  0
    4.2690   -0.3426    0.0000 H   0  0  0  0  0  0  0  0  0  0  0  0
    4.2690   -2.5826    0.0000 H   0  0  0  0  0  0  0  0  0  0  0  0
    3.8015    0.0124    0.0000 H   0  0  0  0  0  0  0  0  0  0  0  0
    3.0044    0.0124    0.0000 H   0  0  0  0  0  0  0  0  0  0  0  0
    6.8671   -3.0826    0.0000 H   0  0  0  0  0  0  0  0  0  0  0  0
    4.5981   -3.7726    0.0000 H   0  0  0  0  0  0  0  0  0  0  0  0
    3.4030   -3.0826    0.0000 H   0  0  0  0  0  0  0  0  0  0  0  0
    2.0000   -0.6526    0.0000 H   0  0  0  0  0  0  0  0  0  0  0  0
  1 11  1  0  0  0  0
  1 12  1  0  0  0  0
 14  2  1  6  0  0  0
  2 37  1  0  0  0  0
  3 17  1  0  0  0  0
  3 20  1  0  0  0  0
 17  4  1  6  0  0  0
 21  4  1  1  0  0  0
  5 16  1  0  0  0  0
  5 39  1  0  0  0  0
  6 21  1  0  0  0  0
  6 24  1  0  0  0  0
 22  7  1  6  0  0  0
  7 47  1  0  0  0  0
 23  8  1  1  0  0  0
  8 48  1  0  0  0  0
 25  9  1  6  0  0  0
  9 49  1  0  0  0  0
 10 26  1  0  0  0  0
 10 50  1  0  0  0  0
 11 12  1  0  0  0  0
 11 13  1  0  0  0  0
 11 16  1  1  0  0  0
 12 14  1  0  0  0  0
 12 18  1  6  0  0  0
 13 15  1  0  0  0  0
 13 17  1  0  0  0  0
 13 27  1  6  0  0  0
 14 15  1  0  0  0  0
 14 28  1  0  0  0  0
 15 19  1  0  0  0  0
 15 29  1  6  0  0  0
 16 30  1  0  0  0  0
 16 31  1  0  0  0  0
 17 32  1  0  0  0  0
 18 33  1  0  0  0  0
 18 34  1  0  0  0  0
 18 35  1  0  0  0  0
 19 20  2  0  0  0  0
 19 36  1  0  0  0  0
 20 38  1  0  0  0  0
 21 22  1  0  0  0  0
 21 40  1  0  0  0  0
 22 23  1  0  0  0  0
 22 41  1  0  0  0  0
 23 25  1  0  0  0  0
 23 42  1  0  0  0  0
 24 25  1  0  0  0  0
 24 26  1  1  0  0  0
 24 43  1  0  0  0  0
 25 44  1  0  0  0  0
 26 45  1  0  0  0  0
 26 46  1  0  0  0  0
M  END
> <PUBCHEM_COMPOUND_CID>
89953032

> <PUBCHEM_COMPOUND_CANONICALIZED>
1

> <PUBCHEM_CACTVS_COMPLEXITY>
585

> <PUBCHEM_CACTVS_HBOND_ACCEPTOR>
10

> <PUBCHEM_CACTVS_HBOND_DONOR>
6

> <PUBCHEM_CACTVS_ROTATABLE_BOND>
4

> <PUBCHEM_CACTVS_SUBSKEYS>
AAADceB4PAAAAAAAAAAAAAAAEgAAAYAAAAAkSIAAAAAAAEAAAAAAGgAACAAADVSwgAMCCAAABgCAACBCAAAACAAgIAAIAAAAAAgREAIAAQAiQAAFwAAHAAHA4DwOgAAAAAAAAAAAAAAAAAAAAYQADCAAAA==

> <PUBCHEM_IUPAC_OPENEYE_NAME>
(2S,3R,4S,5S,6R)-2-[[(1S,2S,4R,5S,6R,10S)-5-hydroxy-2-(hydroxymethyl)-4-methyl-3,9-dioxatricyclo[4.4.0.02,4]dec-7-en-10-yl]oxy]-6-(hydroxymethyl)tetrahydropyran-3,4,5-triol

> <PUBCHEM_IUPAC_CAS_NAME>
(2S,3R,4S,5S,6R)-2-[[(1S,2S,4R,5S,6R,10S)-5-hydroxy-2-(hydroxymethyl)-4-methyl-3,9-dioxatricyclo[4.4.0.02,4]dec-7-en-10-yl]oxy]-6-(hydroxymethyl)oxane-3,4,5-triol

> <PUBCHEM_IUPAC_NAME_MARKUP>
(2<I>S</I>,3<I>R</I>,4<I>S</I>,5<I>S</I>,6<I>R</I>)-2-[[(1<I>S</I>,2<I>S</I>,4<I>R</I>,5<I>S</I>,6<I>R</I>,10<I>S</I>)-5-hydroxy-2-(hydroxymethyl)-4-methyl-3,9-dioxatricyclo[4.4.0.0<SUP>2,4</SUP>]dec-7-en-10-yl]oxy]-6-(hydroxymethyl)oxane-3,4,5-triol

> <PUBCHEM_IUPAC_NAME>
(2S,3R,4S,5S,6R)-2-[[(1S,2S,4R,5S,6R,10S)-5-hydroxy-2-(hydroxymethyl)-4-methyl-3,9-dioxatricyclo[4.4.0.02,4]dec-7-en-10-yl]oxy]-6-(hydroxymethyl)oxane-3,4,5-triol

> <PUBCHEM_IUPAC_SYSTEMATIC_NAME>
(2R,3S,4S,5R,6S)-2-(hydroxymethyl)-6-[[(1S,2S,4R,5S,6R,10S)-2-(hydroxymethyl)-4-methyl-5-oxidanyl-3,9-dioxatricyclo[4.4.0.02,4]dec-7-en-10-yl]oxy]oxane-3,4,5-triol

> <PUBCHEM_IUPAC_TRADITIONAL_NAME>
(2S,3R,4S,5S,6R)-2-[[(1S,2S,4R,5S,6R,10S)-5-hydroxy-4-methyl-2-methylol-3,9-dioxatricyclo[4.4.0.02,4]dec-7-en-10-yl]oxy]-6-methylol-tetrahydropyran-3,4,5-triol

> <PUBCHEM_IUPAC_INCHI>
InChI=1S/C16H24O10/c1-15-12(22)6-2-3-23-13(8(6)16(15,5-18)26-15)25-14-11(21)10(20)9(19)7(4-17)24-14/h2-3,6-14,17-22H,4-5H2,1H3/t6-,7-,8-,9-,10+,11-,12+,13+,14+,15-,16-/m1/s1

> <PUBCHEM_IUPAC_INCHIKEY>
WVIYNUOIYMXEGL-RBXNDFHQSA-N

> <PUBCHEM_XLOGP3_AA>
-3

> <PUBCHEM_EXACT_MASS>
376.13694696

> <PUBCHEM_MOLECULAR_FORMULA>
C16H24O10

> <PUBCHEM_MOLECULAR_WEIGHT>
376.36

> <PUBCHEM_OPENEYE_CAN_SMILES>
CC12C(C3C=COC(C3C1(O2)CO)OC4C(C(C(C(O4)CO)O)O)O)O

> <PUBCHEM_OPENEYE_ISO_SMILES>
C[C@@]12[C@H]([C@@H]3C=CO[C@H]([C@@H]3[C@]1(O2)CO)O[C@H]4[C@@H]([C@H]([C@@H]([C@H](O4)CO)O)O)O)O

> <PUBCHEM_CACTVS_TPSA>
162

> <PUBCHEM_MONOISOTOPIC_WEIGHT>
376.13694696

> <PUBCHEM_TOTAL_CHARGE>
0

> <PUBCHEM_HEAVY_ATOM_COUNT>
26

> <PUBCHEM_ATOM_DEF_STEREO_COUNT>
11

> <PUBCHEM_ATOM_UDEF_STEREO_COUNT>
0

> <PUBCHEM_BOND_DEF_STEREO_COUNT>
0

> <PUBCHEM_BOND_UDEF_STEREO_COUNT>
0

> <PUBCHEM_ISOTOPIC_ATOM_COUNT>
0

> <PUBCHEM_COMPONENT_COUNT>
1

> <PUBCHEM_CACTVS_TAUTO_COUNT>
-1

> <PUBCHEM_COORDINATE_TYPE>
1
5
255

> <PUBCHEM_BONDANNOTATIONS>
11  16  5
12  18  6
13  27  6
15  29  6
14  2  6
24  26  5
17  4  6
21  4  5
22  7  6
23  8  5
25  9  6

$$$$
