 
  -OEChem-10192103352D

 62 65  0     0  0  0  0  0  0999 V2000
   11.2593   -0.5254    0.0000 O   0  0  0  0  0  0  0  0  0  0  0  0
   12.9952    0.4679    0.0000 O   0  0  0  0  0  0  0  0  0  0  0  0
   13.0029    2.4679    0.0000 O   0  0  0  0  0  0  0  0  0  0  0  0
    2.5369    2.5121    0.0000 O   0  0  0  0  0  0  0  0  0  0  0  0
    7.7876   -2.5121    0.0000 O   0  0  0  0  0  0  0  0  0  0  0  0
    4.2690    3.5121    0.0000 O   0  0  0  0  0  0  0  0  0  0  0  0
    4.2690   -0.4879    0.0000 O   0  0  0  0  0  0  0  0  0  0  0  0
    9.5196   -2.5187    0.0000 O   0  0  0  0  0  0  0  0  0  0  0  0
    7.7953   -0.5121    0.0000 N   0  0  0  0  0  0  0  0  0  0  0  0
    6.0290    0.4774    0.0000 N   0  0  0  0  0  0  0  0  0  0  0  0
    8.6709    1.9846    0.0000 N   0  0  0  0  0  0  0  0  0  0  0  0
    2.5369    0.5121    0.0000 N   0  0  0  0  0  0  0  0  0  0  0  0
    9.5312    0.4812    0.0000 C   0  0  0  0  0  0  0  0  0  0  0  0
    9.5273   -0.5188    0.0000 C   0  0  0  0  0  0  0  0  0  0  0  0
    8.6671    0.9846    0.0000 C   0  0  0  0  0  0  0  0  0  0  0  0
   10.3991    0.9779    0.0000 C   0  0  0  0  0  0  0  0  0  0  0  0
    7.7991    0.4879    0.0000 C   0  0  0  0  0  0  0  0  0  0  0  0
    6.9350    0.9912    0.0000 C   0  0  0  0  0  0  0  0  0  0  0  0
    8.6594   -1.0154    0.0000 C   0  0  0  0  0  0  0  0  0  0  0  0
   11.2632    0.4746    0.0000 C   0  0  0  0  0  0  0  0  0  0  0  0
    5.1350    2.0121    0.0000 C   0  0  0  0  0  0  0  0  0  0  0  0
    5.1350    1.0121    0.0000 C   0  0  0  0  0  0  0  0  0  0  0  0
   10.3914   -1.0221    0.0000 C   0  0  0  0  0  0  0  0  0  0  0  0
   10.4030    1.9779    0.0000 C   0  0  0  0  0  0  0  0  0  0  0  0
    6.9350    2.0329    0.0000 C   0  0  0  0  0  0  0  0  0  0  0  0
    6.0290    2.5467    0.0000 C   0  0  0  0  0  0  0  0  0  0  0  0
   12.1311    0.9712    0.0000 C   0  0  0  0  0  0  0  0  0  0  0  0
   11.2709    2.4745    0.0000 C   0  0  0  0  0  0  0  0  0  0  0  0
   12.1350    1.9712    0.0000 C   0  0  0  0  0  0  0  0  0  0  0  0
    4.2690    2.5121    0.0000 C   0  0  0  0  0  0  0  0  0  0  0  0
    4.2690    0.5121    0.0000 C   0  0  0  0  0  0  0  0  0  0  0  0
    3.4030    1.0121    0.0000 C   0  0  0  0  0  0  0  0  0  0  0  0
    3.4030    2.0121    0.0000 C   0  0  0  0  0  0  0  0  0  0  0  0
    8.6555   -2.0154    0.0000 C   0  0  0  0  0  0  0  0  0  0  0  0
   13.8632    0.9645    0.0000 C   0  0  0  0  0  0  0  0  0  0  0  0
   13.0068    3.4679    0.0000 C   0  0  0  0  0  0  0  0  0  0  0  0
    2.5369    3.5121    0.0000 C   0  0  0  0  0  0  0  0  0  0  0  0
    7.7837   -3.5121    0.0000 C   0  0  0  0  0  0  0  0  0  0  0  0
   10.0793   -1.5578    0.0000 H   0  0  0  0  0  0  0  0  0  0  0  0
   10.9271   -1.3342    0.0000 H   0  0  0  0  0  0  0  0  0  0  0  0
   10.7035   -0.4864    0.0000 H   0  0  0  0  0  0  0  0  0  0  0  0
    9.8672    2.2900    0.0000 H   0  0  0  0  0  0  0  0  0  0  0  0
    7.4708    2.3449    0.0000 H   0  0  0  0  0  0  0  0  0  0  0  0
    6.0218    3.1667    0.0000 H   0  0  0  0  0  0  0  0  0  0  0  0
   11.2733    3.0945    0.0000 H   0  0  0  0  0  0  0  0  0  0  0  0
    8.1352    2.2966    0.0000 H   0  0  0  0  0  0  0  0  0  0  0  0
    9.2090    2.2925    0.0000 H   0  0  0  0  0  0  0  0  0  0  0  0
   11.7951   -0.8375    0.0000 H   0  0  0  0  0  0  0  0  0  0  0  0
    2.0000    0.8221    0.0000 H   0  0  0  0  0  0  0  0  0  0  0  0
    2.5369   -0.1079    0.0000 H   0  0  0  0  0  0  0  0  0  0  0  0
   14.1711    0.4264    0.0000 H   0  0  0  0  0  0  0  0  0  0  0  0
   14.4013    1.2725    0.0000 H   0  0  0  0  0  0  0  0  0  0  0  0
   13.5552    1.5027    0.0000 H   0  0  0  0  0  0  0  0  0  0  0  0
   13.6268    3.4655    0.0000 H   0  0  0  0  0  0  0  0  0  0  0  0
   13.0092    4.0879    0.0000 H   0  0  0  0  0  0  0  0  0  0  0  0
   12.3868    3.4702    0.0000 H   0  0  0  0  0  0  0  0  0  0  0  0
    3.1569    3.5121    0.0000 H   0  0  0  0  0  0  0  0  0  0  0  0
    2.5369    4.1321    0.0000 H   0  0  0  0  0  0  0  0  0  0  0  0
    1.9169    3.5121    0.0000 H   0  0  0  0  0  0  0  0  0  0  0  0
    7.1637   -3.5097    0.0000 H   0  0  0  0  0  0  0  0  0  0  0  0
    7.7813   -4.1321    0.0000 H   0  0  0  0  0  0  0  0  0  0  0  0
    8.4037   -3.5144    0.0000 H   0  0  0  0  0  0  0  0  0  0  0  0
  1 20  1  0  0  0  0
  1 48  1  0  0  0  0
  2 27  1  0  0  0  0
  2 35  1  0  0  0  0
  3 29  1  0  0  0  0
  3 36  1  0  0  0  0
  4 33  1  0  0  0  0
  4 37  1  0  0  0  0
  5 34  1  0  0  0  0
  5 38  1  0  0  0  0
  6 30  2  0  0  0  0
  7 31  2  0  0  0  0
  8 34  2  0  0  0  0
  9 17  1  0  0  0  0
  9 19  2  0  0  0  0
 10 18  2  0  0  0  0
 10 22  1  0  0  0  0
 11 15  1  0  0  0  0
 11 46  1  0  0  0  0
 11 47  1  0  0  0  0
 12 32  1  0  0  0  0
 12 49  1  0  0  0  0
 12 50  1  0  0  0  0
 13 14  2  0  0  0  0
 13 15  1  0  0  0  0
 13 16  1  0  0  0  0
 14 19  1  0  0  0  0
 14 23  1  0  0  0  0
 15 17  2  0  0  0  0
 16 20  2  0  0  0  0
 16 24  1  0  0  0  0
 17 18  1  0  0  0  0
 18 25  1  0  0  0  0
 19 34  1  0  0  0  0
 20 27  1  0  0  0  0
 21 22  2  0  0  0  0
 21 26  1  0  0  0  0
 21 30  1  0  0  0  0
 22 31  1  0  0  0  0
 23 39  1  0  0  0  0
 23 40  1  0  0  0  0
 23 41  1  0  0  0  0
 24 28  2  0  0  0  0
 24 42  1  0  0  0  0
 25 26  2  0  0  0  0
 25 43  1  0  0  0  0
 26 44  1  0  0  0  0
 27 29  2  0  0  0  0
 28 29  1  0  0  0  0
 28 45  1  0  0  0  0
 30 33  1  0  0  0  0
 31 32  1  0  0  0  0
 32 33  2  0  0  0  0
 35 51  1  0  0  0  0
 35 52  1  0  0  0  0
 35 53  1  0  0  0  0
 36 54  1  0  0  0  0
 36 55  1  0  0  0  0
 36 56  1  0  0  0  0
 37 57  1  0  0  0  0
 37 58  1  0  0  0  0
 37 59  1  0  0  0  0
 38 60  1  0  0  0  0
 38 61  1  0  0  0  0
 38 62  1  0  0  0  0
M  END
> <PUBCHEM_COMPOUND_CID>
18834

> <PUBCHEM_COMPOUND_CANONICALIZED>
1

> <PUBCHEM_CACTVS_COMPLEXITY>
960

> <PUBCHEM_CACTVS_HBOND_ACCEPTOR>
12

> <PUBCHEM_CACTVS_HBOND_DONOR>
3

> <PUBCHEM_CACTVS_ROTATABLE_BOND>
7

> <PUBCHEM_CACTVS_SUBSKEYS>
AAADceB7vAAAAAAAAAAAAAAAAAAAAAAAAAA8WIEAAAAAAACB8AAAHgAQCAAADAyBngIyzpJIFgCoA6TyTAaCiCAnMiAImCH2/NgPZ/rG9L+VcatlwBXb+ce5/f+eoAABCAAIQABAAAIQABCAAAAAAAAAAA==

> <PUBCHEM_IUPAC_OPENEYE_NAME>
methyl 5-amino-6-(7-amino-6-methoxy-5,8-dioxo-2-quinolyl)-4-(2-hydroxy-3,4-dimethoxy-phenyl)-3-methyl-pyridine-2-carboxylate

> <PUBCHEM_IUPAC_CAS_NAME>
5-amino-6-(7-amino-6-methoxy-5,8-dioxo-2-quinolinyl)-4-(2-hydroxy-3,4-dimethoxyphenyl)-3-methyl-2-pyridinecarboxylic acid methyl ester

> <PUBCHEM_IUPAC_NAME_MARKUP>
methyl 5-amino-6-(7-amino-6-methoxy-5,8-dioxoquinolin-2-yl)-4-(2-hydroxy-3,4-dimethoxyphenyl)-3-methylpyridine-2-carboxylate

> <PUBCHEM_IUPAC_NAME>
methyl 5-amino-6-(7-amino-6-methoxy-5,8-dioxoquinolin-2-yl)-4-(2-hydroxy-3,4-dimethoxyphenyl)-3-methylpyridine-2-carboxylate

> <PUBCHEM_IUPAC_SYSTEMATIC_NAME>
methyl 5-azanyl-6-[7-azanyl-6-methoxy-5,8-bis(oxidanylidene)quinolin-2-yl]-4-(3,4-dimethoxy-2-oxidanyl-phenyl)-3-methyl-pyridine-2-carboxylate

> <PUBCHEM_IUPAC_TRADITIONAL_NAME>
5-amino-6-(7-amino-5,8-diketo-6-methoxy-2-quinolyl)-4-(2-hydroxy-3,4-dimethoxy-phenyl)-3-methyl-picolinic acid methyl ester

> <PUBCHEM_IUPAC_INCHI>
InChI=1S/C26H24N4O8/c1-10-15(11-7-9-14(35-2)24(36-3)21(11)31)16(27)20(30-18(10)26(34)38-5)13-8-6-12-19(29-13)23(33)17(28)25(37-4)22(12)32/h6-9,31H,27-28H2,1-5H3

> <PUBCHEM_IUPAC_INCHIKEY>
HKZHTIOXLTVSKR-UHFFFAOYSA-N

> <PUBCHEM_XLOGP3_AA>
2.1

> <PUBCHEM_EXACT_MASS>
520.15941374

> <PUBCHEM_MOLECULAR_FORMULA>
C26H24N4O8

> <PUBCHEM_MOLECULAR_WEIGHT>
520.5

> <PUBCHEM_OPENEYE_CAN_SMILES>
CC1=C(C(=C(N=C1C(=O)OC)C2=NC3=C(C=C2)C(=O)C(=C(C3=O)N)OC)N)C4=C(C(=C(C=C4)OC)OC)O

> <PUBCHEM_OPENEYE_ISO_SMILES>
CC1=C(C(=C(N=C1C(=O)OC)C2=NC3=C(C=C2)C(=O)C(=C(C3=O)N)OC)N)C4=C(C(=C(C=C4)OC)OC)O

> <PUBCHEM_CACTVS_TPSA>
186

> <PUBCHEM_MONOISOTOPIC_WEIGHT>
520.15941374

> <PUBCHEM_TOTAL_CHARGE>
0

> <PUBCHEM_HEAVY_ATOM_COUNT>
38

> <PUBCHEM_ATOM_DEF_STEREO_COUNT>
0

> <PUBCHEM_ATOM_UDEF_STEREO_COUNT>
0

> <PUBCHEM_BOND_DEF_STEREO_COUNT>
0

> <PUBCHEM_BOND_UDEF_STEREO_COUNT>
0

> <PUBCHEM_ISOTOPIC_ATOM_COUNT>
0

> <PUBCHEM_COMPONENT_COUNT>
1

> <PUBCHEM_CACTVS_TAUTO_COUNT>
645

> <PUBCHEM_COORDINATE_TYPE>
1
5
255

> <PUBCHEM_BONDANNOTATIONS>
10  18  8
10  22  8
13  14  8
13  15  8
14  19  8
15  17  8
16  20  8
16  24  8
18  25  8
20  27  8
21  22  8
21  26  8
24  28  8
25  26  8
27  29  8
28  29  8
9  17  8
9  19  8

$$$$
