 
  -OEChem-10192104022D

 54 56  0     1  0  0  0  0  0999 V2000
    4.2690   -2.5757    0.0000 O   0  0  0  0  0  0  0  0  0  0  0  0
   11.1914    3.5013    0.0000 O   0  0  0  0  0  0  0  0  0  0  0  0
    7.9452    1.9322    0.0000 O   0  0  0  0  0  0  0  0  0  0  0  0
   11.5486    1.8065    0.0000 O   0  0  0  0  0  0  0  0  0  0  0  0
    9.1878    5.7342    0.0000 O   0  0  0  0  0  0  0  0  0  0  0  0
    7.8987    4.5775    0.0000 O   0  0  0  0  0  0  0  0  0  0  0  0
    6.0812   -5.3804    0.0000 N   0  0  0  0  0  0  0  0  0  0  0  0
    7.3704   -2.6142    0.0000 N   0  0  0  0  0  0  0  0  0  0  0  0
    9.5916    1.3941    0.0000 N   0  0  0  0  0  0  0  0  0  0  0  0
    4.2690   -5.5757    0.0000 N   0  0  0  0  0  0  0  0  0  0  0  0
    3.4030   -4.0757    0.0000 N   0  0  0  0  0  0  0  0  0  0  0  0
    2.5369   -5.5757    0.0000 N   0  0  0  0  0  0  0  0  0  0  0  0
    6.0812   -3.7710    0.0000 C   0  0  0  0  0  0  0  0  0  0  0  0
    5.1350   -4.0757    0.0000 C   0  0  0  0  0  0  0  0  0  0  0  0
    6.6648   -4.5757    0.0000 C   0  0  0  0  0  0  0  0  0  0  0  0
    6.3919   -2.8204    0.0000 C   0  0  0  0  0  0  0  0  0  0  0  0
    5.1350   -5.0757    0.0000 C   0  0  0  0  0  0  0  0  0  0  0  0
    9.9022    2.3446    0.0000 C   0  0  2  0  0  0  0  0  0  0  0  0
    9.2344    3.0889    0.0000 C   0  0  0  0  0  0  0  0  0  0  0  0
    4.2690   -3.5757    0.0000 C   0  0  0  0  0  0  0  0  0  0  0  0
    7.6648   -4.5757    0.0000 C   0  0  0  0  0  0  0  0  0  0  0  0
    7.6811   -1.6637    0.0000 C   0  0  0  0  0  0  0  0  0  0  0  0
    9.5450    4.0394    0.0000 C   0  0  0  0  0  0  0  0  0  0  0  0
    8.3024    0.2373    0.0000 C   0  0  0  0  0  0  0  0  0  0  0  0
    3.4030   -5.0757    0.0000 C   0  0  0  0  0  0  0  0  0  0  0  0
    8.6130    1.1878    0.0000 C   0  0  0  0  0  0  0  0  0  0  0  0
    8.6596   -1.4575    0.0000 C   0  0  0  0  0  0  0  0  0  0  0  0
    7.0132   -0.9194    0.0000 C   0  0  0  0  0  0  0  0  0  0  0  0
    8.9702   -0.5070    0.0000 C   0  0  0  0  0  0  0  0  0  0  0  0
    7.3239    0.0311    0.0000 C   0  0  0  0  0  0  0  0  0  0  0  0
   10.8807    2.5508    0.0000 C   0  0  0  0  0  0  0  0  0  0  0  0
    8.8772    4.7837    0.0000 C   0  0  0  0  0  0  0  0  0  0  0  0
    6.3713   -2.2008    0.0000 H   0  0  0  0  0  0  0  0  0  0  0  0
    5.7781   -2.7331    0.0000 H   0  0  0  0  0  0  0  0  0  0  0  0
    6.2738   -5.9698    0.0000 H   0  0  0  0  0  0  0  0  0  0  0  0
   10.3163    1.8831    0.0000 H   0  0  0  0  0  0  0  0  0  0  0  0
    8.6874    3.3809    0.0000 H   0  0  0  0  0  0  0  0  0  0  0  0
    8.8518    2.6010    0.0000 H   0  0  0  0  0  0  0  0  0  0  0  0
    7.7845   -3.0757    0.0000 H   0  0  0  0  0  0  0  0  0  0  0  0
    7.6648   -5.1957    0.0000 H   0  0  0  0  0  0  0  0  0  0  0  0
    8.2848   -4.5757    0.0000 H   0  0  0  0  0  0  0  0  0  0  0  0
    7.6648   -3.9557    0.0000 H   0  0  0  0  0  0  0  0  0  0  0  0
   10.0920    3.7474    0.0000 H   0  0  0  0  0  0  0  0  0  0  0  0
    9.9276    4.5273    0.0000 H   0  0  0  0  0  0  0  0  0  0  0  0
   10.0056    0.9326    0.0000 H   0  0  0  0  0  0  0  0  0  0  0  0
    2.8660   -3.7657    0.0000 H   0  0  0  0  0  0  0  0  0  0  0  0
    9.0736   -1.9190    0.0000 H   0  0  0  0  0  0  0  0  0  0  0  0
    6.4066   -1.0473    0.0000 H   0  0  0  0  0  0  0  0  0  0  0  0
    9.5769   -0.3791    0.0000 H   0  0  0  0  0  0  0  0  0  0  0  0
    6.9098    0.4926    0.0000 H   0  0  0  0  0  0  0  0  0  0  0  0
    2.5369   -6.1957    0.0000 H   0  0  0  0  0  0  0  0  0  0  0  0
    2.0000   -5.2657    0.0000 H   0  0  0  0  0  0  0  0  0  0  0  0
   11.7981    3.6292    0.0000 H   0  0  0  0  0  0  0  0  0  0  0  0
    8.7738    6.1957    0.0000 H   0  0  0  0  0  0  0  0  0  0  0  0
  1 20  2  0  0  0  0
  2 31  1  0  0  0  0
  2 53  1  0  0  0  0
  3 26  2  0  0  0  0
  4 31  2  0  0  0  0
  5 32  1  0  0  0  0
  5 54  1  0  0  0  0
  6 32  2  0  0  0  0
  7 15  1  0  0  0  0
  7 17  1  0  0  0  0
  7 35  1  0  0  0  0
  8 16  1  0  0  0  0
  8 22  1  0  0  0  0
  8 39  1  0  0  0  0
 18  9  1  6  0  0  0
  9 26  1  0  0  0  0
  9 45  1  0  0  0  0
 10 17  1  0  0  0  0
 10 25  2  0  0  0  0
 11 20  1  0  0  0  0
 11 25  1  0  0  0  0
 11 46  1  0  0  0  0
 12 25  1  0  0  0  0
 12 51  1  0  0  0  0
 12 52  1  0  0  0  0
 13 14  1  0  0  0  0
 13 15  2  0  0  0  0
 13 16  1  0  0  0  0
 14 17  2  0  0  0  0
 14 20  1  0  0  0  0
 15 21  1  0  0  0  0
 16 33  1  0  0  0  0
 16 34  1  0  0  0  0
 18 19  1  0  0  0  0
 18 31  1  0  0  0  0
 18 36  1  0  0  0  0
 19 23  1  0  0  0  0
 19 37  1  0  0  0  0
 19 38  1  0  0  0  0
 21 40  1  0  0  0  0
 21 41  1  0  0  0  0
 21 42  1  0  0  0  0
 22 27  2  0  0  0  0
 22 28  1  0  0  0  0
 23 32  1  0  0  0  0
 23 43  1  0  0  0  0
 23 44  1  0  0  0  0
 24 26  1  0  0  0  0
 24 29  2  0  0  0  0
 24 30  1  0  0  0  0
 27 29  1  0  0  0  0
 27 47  1  0  0  0  0
 28 30  2  0  0  0  0
 28 48  1  0  0  0  0
 29 49  1  0  0  0  0
 30 50  1  0  0  0  0
M  END
> <PUBCHEM_COMPOUND_CID>
136074288

> <PUBCHEM_COMPOUND_CANONICALIZED>
1

> <PUBCHEM_CACTVS_COMPLEXITY>
781

> <PUBCHEM_CACTVS_HBOND_ACCEPTOR>
8

> <PUBCHEM_CACTVS_HBOND_DONOR>
7

> <PUBCHEM_CACTVS_ROTATABLE_BOND>
9

> <PUBCHEM_CACTVS_SUBSKEYS>
AAADceB7uAAAAAAAAAAAAAAAAAAAAWAAAAAwQAAAAAAAAEABwAAAHgAQCAAADCjBngQz+JLJkgCoAyfyfACCgCmlAiAJmaG4ZNiKIHrA3bGEYYhklwLYyee8rwCeiAAAAAAAAAAQAAAAAAAAAAAAAAAAAA==

> <PUBCHEM_IUPAC_OPENEYE_NAME>
(2R)-2-[[4-[(2-amino-6-methyl-4-oxo-3,7-dihydropyrrolo[2,3-d]pyrimidin-5-yl)methylamino]benzoyl]amino]pentanedioic acid

> <PUBCHEM_IUPAC_CAS_NAME>
(2R)-2-[[[4-[(2-amino-6-methyl-4-oxo-3,7-dihydropyrrolo[2,3-d]pyrimidin-5-yl)methylamino]phenyl]-oxomethyl]amino]pentanedioic acid

> <PUBCHEM_IUPAC_NAME_MARKUP>
(2<I>R</I>)-2-[[4-[(2-amino-6-methyl-4-oxo-3,7-dihydropyrrolo[2,3-d]pyrimidin-5-yl)methylamino]benzoyl]amino]pentanedioic acid

> <PUBCHEM_IUPAC_NAME>
(2R)-2-[[4-[(2-amino-6-methyl-4-oxo-3,7-dihydropyrrolo[2,3-d]pyrimidin-5-yl)methylamino]benzoyl]amino]pentanedioic acid

> <PUBCHEM_IUPAC_SYSTEMATIC_NAME>
(2R)-2-[[4-[(2-azanyl-6-methyl-4-oxidanylidene-3,7-dihydropyrrolo[2,3-d]pyrimidin-5-yl)methylamino]phenyl]carbonylamino]pentanedioic acid

> <PUBCHEM_IUPAC_TRADITIONAL_NAME>
(2R)-2-[[4-[(2-amino-4-keto-6-methyl-3,7-dihydropyrrolo[2,3-d]pyrimidin-5-yl)methylamino]benzoyl]amino]glutaric acid

> <PUBCHEM_IUPAC_INCHI>
InChI=1S/C20H22N6O6/c1-9-12(15-16(23-9)25-20(21)26-18(15)30)8-22-11-4-2-10(3-5-11)17(29)24-13(19(31)32)6-7-14(27)28/h2-5,13,22H,6-8H2,1H3,(H,24,29)(H,27,28)(H,31,32)(H4,21,23,25,26,30)/t13-/m1/s1

> <PUBCHEM_IUPAC_INCHIKEY>
CMMCCEOFORPIQN-CYBMUJFWSA-N

> <PUBCHEM_XLOGP3_AA>
-0.1

> <PUBCHEM_EXACT_MASS>
442.16008244

> <PUBCHEM_MOLECULAR_FORMULA>
C20H22N6O6

> <PUBCHEM_MOLECULAR_WEIGHT>
442.4

> <PUBCHEM_OPENEYE_CAN_SMILES>
CC1=C(C2=C(N1)N=C(NC2=O)N)CNC3=CC=C(C=C3)C(=O)NC(CCC(=O)O)C(=O)O

> <PUBCHEM_OPENEYE_ISO_SMILES>
CC1=C(C2=C(N1)N=C(NC2=O)N)CNC3=CC=C(C=C3)C(=O)N[C@H](CCC(=O)O)C(=O)O

> <PUBCHEM_CACTVS_TPSA>
199

> <PUBCHEM_MONOISOTOPIC_WEIGHT>
442.16008244

> <PUBCHEM_TOTAL_CHARGE>
0

> <PUBCHEM_HEAVY_ATOM_COUNT>
32

> <PUBCHEM_ATOM_DEF_STEREO_COUNT>
1

> <PUBCHEM_ATOM_UDEF_STEREO_COUNT>
0

> <PUBCHEM_BOND_DEF_STEREO_COUNT>
0

> <PUBCHEM_BOND_UDEF_STEREO_COUNT>
0

> <PUBCHEM_ISOTOPIC_ATOM_COUNT>
0

> <PUBCHEM_COMPONENT_COUNT>
1

> <PUBCHEM_CACTVS_TAUTO_COUNT>
-1

> <PUBCHEM_COORDINATE_TYPE>
1
5
255

> <PUBCHEM_BONDANNOTATIONS>
10  17  8
10  25  8
11  20  8
11  25  8
13  14  8
13  15  8
14  17  8
14  20  8
22  27  8
22  28  8
24  29  8
24  30  8
27  29  8
28  30  8
7  15  8
7  17  8
18  9  6

$$$$
