 
  -OEChem-10192103292D

 74 77  0     1  0  0  0  0  0999 V2000
    3.7320   -1.8193    0.0000 O   0  0  0  0  0  0  0  0  0  0  0  0
    5.6286    1.2328    0.0000 O   0  0  0  0  0  0  0  0  0  0  0  0
   10.7527   -0.3593    0.0000 O   0  0  0  0  0  0  0  0  0  0  0  0
   10.2123   -1.0617    0.0000 O   0  0  0  0  0  0  0  0  0  0  0  0
   10.3820    2.4883    0.0000 O   0  0  0  0  0  0  0  0  0  0  0  0
    6.4985    1.7262    0.0000 O   0  0  0  0  0  0  0  0  0  0  0  0
    9.4259   -1.4727    0.0000 O   0  0  0  0  0  0  0  0  0  0  0  0
    2.8718   -0.3159    0.0000 O   0  0  0  0  0  0  0  0  0  0  0  0
    8.2591   -0.2669    0.0000 C   0  0  3  0  0  0  0  0  0  0  0  0
    6.4831   -0.2738    0.0000 C   0  0  3  0  0  0  0  0  0  0  0  0
    7.3931    0.2331    0.0000 C   0  0  3  0  0  0  0  0  0  0  0  0
    6.4750   -1.3154    0.0000 C   0  0  3  0  0  0  0  0  0  0  0  0
    9.1251    0.2331    0.0000 C   0  0  3  0  0  0  0  0  0  0  0  0
    8.2752   -1.3084    0.0000 C   0  0  0  0  0  0  0  0  0  0  0  0
    5.5396   -1.8651    0.0000 C   0  0  0  0  0  0  0  0  0  0  0  0
    7.3771   -1.8362    0.0000 C   0  0  0  0  0  0  0  0  0  0  0  0
    9.1251    1.2331    0.0000 C   0  0  3  0  0  0  0  0  0  0  0  0
    5.5562    0.2903    0.0000 C   0  0  0  0  0  0  0  0  0  0  0  0
    7.3931    1.2331    0.0000 C   0  0  0  0  0  0  0  0  0  0  0  0
    4.6000   -1.3226    0.0000 C   0  0  3  0  0  0  0  0  0  0  0  0
    9.1251   -0.7669    0.0000 C   0  0  0  0  0  0  0  0  0  0  0  0
    4.6084   -0.2377    0.0000 C   0  0  0  0  0  0  0  0  0  0  0  0
    8.2591    1.7331    0.0000 C   0  0  0  0  0  0  0  0  0  0  0  0
   10.0713   -0.0717    0.0000 C   0  0  0  0  0  0  0  0  0  0  0  0
    6.4908    0.7262    0.0000 C   0  0  0  0  0  0  0  0  0  0  0  0
   10.0713    1.5378    0.0000 C   0  0  0  0  0  0  0  0  0  0  0  0
    9.7680   -0.5329    0.0000 C   0  0  0  0  0  0  0  0  0  0  0  0
    5.0430   -2.7331    0.0000 C   0  0  0  0  0  0  0  0  0  0  0  0
    6.0430   -2.7292    0.0000 C   0  0  0  0  0  0  0  0  0  0  0  0
    9.1251    2.2331    0.0000 C   0  0  0  0  0  0  0  0  0  0  0  0
   10.6550    0.7331    0.0000 C   0  0  0  0  0  0  0  0  0  0  0  0
    8.2591    2.7331    0.0000 C   0  0  0  0  0  0  0  0  0  0  0  0
   11.6550    0.7331    0.0000 C   0  0  0  0  0  0  0  0  0  0  0  0
    2.8680   -1.3159    0.0000 C   0  0  0  0  0  0  0  0  0  0  0  0
   11.3955   -1.1254    0.0000 C   0  0  0  0  0  0  0  0  0  0  0  0
    2.0000   -1.8126    0.0000 C   0  0  0  0  0  0  0  0  0  0  0  0
    7.9300    0.5431    0.0000 H   0  0  0  0  0  0  0  0  0  0  0  0
    6.4774   -1.9354    0.0000 H   0  0  0  0  0  0  0  0  0  0  0  0
    8.4932   -1.8888    0.0000 H   0  0  0  0  0  0  0  0  0  0  0  0
    8.8843   -1.1930    0.0000 H   0  0  0  0  0  0  0  0  0  0  0  0
    6.9798   -2.3122    0.0000 H   0  0  0  0  0  0  0  0  0  0  0  0
    7.7781   -2.3091    0.0000 H   0  0  0  0  0  0  0  0  0  0  0  0
    5.9644    0.7569    0.0000 H   0  0  0  0  0  0  0  0  0  0  0  0
    5.1663    0.7723    0.0000 H   0  0  0  0  0  0  0  0  0  0  0  0
    6.8561    1.5431    0.0000 H   0  0  0  0  0  0  0  0  0  0  0  0
    4.0648   -1.0095    0.0000 H   0  0  0  0  0  0  0  0  0  0  0  0
    8.8151   -1.3039    0.0000 H   0  0  0  0  0  0  0  0  0  0  0  0
    9.6621   -1.0769    0.0000 H   0  0  0  0  0  0  0  0  0  0  0  0
    9.4351   -0.2300    0.0000 H   0  0  0  0  0  0  0  0  0  0  0  0
    4.4038    0.3476    0.0000 H   0  0  0  0  0  0  0  0  0  0  0  0
    3.9967   -0.3390    0.0000 H   0  0  0  0  0  0  0  0  0  0  0  0
    4.5048   -2.4251    0.0000 H   0  0  0  0  0  0  0  0  0  0  0  0
    4.7350   -3.2712    0.0000 H   0  0  0  0  0  0  0  0  0  0  0  0
    5.5811   -3.0410    0.0000 H   0  0  0  0  0  0  0  0  0  0  0  0
    5.5072   -3.0413    0.0000 H   0  0  0  0  0  0  0  0  0  0  0  0
    6.3550   -3.2649    0.0000 H   0  0  0  0  0  0  0  0  0  0  0  0
    6.5787   -2.4171    0.0000 H   0  0  0  0  0  0  0  0  0  0  0  0
    9.7451    2.2331    0.0000 H   0  0  0  0  0  0  0  0  0  0  0  0
    9.1251    2.8531    0.0000 H   0  0  0  0  0  0  0  0  0  0  0  0
    8.5051    2.2331    0.0000 H   0  0  0  0  0  0  0  0  0  0  0  0
    8.8791    2.7331    0.0000 H   0  0  0  0  0  0  0  0  0  0  0  0
    8.2591    3.3531    0.0000 H   0  0  0  0  0  0  0  0  0  0  0  0
    7.6391    2.7331    0.0000 H   0  0  0  0  0  0  0  0  0  0  0  0
   11.6550    0.1131    0.0000 H   0  0  0  0  0  0  0  0  0  0  0  0
   12.2750    0.7331    0.0000 H   0  0  0  0  0  0  0  0  0  0  0  0
   11.6550    1.3531    0.0000 H   0  0  0  0  0  0  0  0  0  0  0  0
    5.6334    1.8528    0.0000 H   0  0  0  0  0  0  0  0  0  0  0  0
   10.9887    2.6162    0.0000 H   0  0  0  0  0  0  0  0  0  0  0  0
   10.9206   -1.5239    0.0000 H   0  0  0  0  0  0  0  0  0  0  0  0
   11.7940   -1.6003    0.0000 H   0  0  0  0  0  0  0  0  0  0  0  0
   11.8705   -0.7269    0.0000 H   0  0  0  0  0  0  0  0  0  0  0  0
    1.6921   -1.2745    0.0000 H   0  0  0  0  0  0  0  0  0  0  0  0
    1.4619   -2.1205    0.0000 H   0  0  0  0  0  0  0  0  0  0  0  0
    2.3079   -2.3507    0.0000 H   0  0  0  0  0  0  0  0  0  0  0  0
  1 20  1  0  0  0  0
  1 34  1  0  0  0  0
  2 25  1  0  0  0  0
  2 67  1  0  0  0  0
  3 27  1  0  0  0  0
  3 35  1  0  0  0  0
  4 24  2  0  0  0  0
  5 26  1  0  0  0  0
  5 68  1  0  0  0  0
  6 25  2  0  0  0  0
  7 27  2  0  0  0  0
  8 34  2  0  0  0  0
  9 11  1  0  0  0  0
  9 13  1  0  0  0  0
  9 14  1  0  0  0  0
  9 21  1  0  0  0  0
 10 11  1  0  0  0  0
 10 12  1  0  0  0  0
 10 18  1  0  0  0  0
 10 25  1  0  0  0  0
 11 19  1  0  0  0  0
 11 37  1  0  0  0  0
 12 15  1  0  0  0  0
 12 16  1  0  0  0  0
 12 38  1  0  0  0  0
 13 17  1  0  0  0  0
 13 24  1  0  0  0  0
 13 27  1  0  0  0  0
 14 16  1  0  0  0  0
 14 39  1  0  0  0  0
 14 40  1  0  0  0  0
 15 20  1  0  0  0  0
 15 28  1  0  0  0  0
 15 29  1  0  0  0  0
 16 41  1  0  0  0  0
 16 42  1  0  0  0  0
 17 23  1  0  0  0  0
 17 26  1  0  0  0  0
 17 30  1  0  0  0  0
 18 22  1  0  0  0  0
 18 43  1  0  0  0  0
 18 44  1  0  0  0  0
 19 23  2  0  0  0  0
 19 45  1  0  0  0  0
 20 22  1  0  0  0  0
 20 46  1  0  0  0  0
 21 47  1  0  0  0  0
 21 48  1  0  0  0  0
 21 49  1  0  0  0  0
 22 50  1  0  0  0  0
 22 51  1  0  0  0  0
 23 32  1  0  0  0  0
 24 31  1  0  0  0  0
 26 31  2  0  0  0  0
 28 52  1  0  0  0  0
 28 53  1  0  0  0  0
 28 54  1  0  0  0  0
 29 55  1  0  0  0  0
 29 56  1  0  0  0  0
 29 57  1  0  0  0  0
 30 58  1  0  0  0  0
 30 59  1  0  0  0  0
 30 60  1  0  0  0  0
 31 33  1  0  0  0  0
 32 61  1  0  0  0  0
 32 62  1  0  0  0  0
 32 63  1  0  0  0  0
 33 64  1  0  0  0  0
 33 65  1  0  0  0  0
 33 66  1  0  0  0  0
 34 36  1  0  0  0  0
 35 69  1  0  0  0  0
 35 70  1  0  0  0  0
 35 71  1  0  0  0  0
 36 72  1  0  0  0  0
 36 73  1  0  0  0  0
 36 74  1  0  0  0  0
M  END
> <PUBCHEM_COMPOUND_CID>
23757166

> <PUBCHEM_COMPOUND_CANONICALIZED>
1

> <PUBCHEM_CACTVS_COMPLEXITY>
1130

> <PUBCHEM_CACTVS_HBOND_ACCEPTOR>
8

> <PUBCHEM_CACTVS_HBOND_DONOR>
2

> <PUBCHEM_CACTVS_ROTATABLE_BOND>
5

> <PUBCHEM_CACTVS_SUBSKEYS>
AAADcfB4PAAAAAAAAAAAAAAAAAAAAQAAAAAwYIAAAAAAAEDAAAAAGgAACAAADxSggAICCAAABgCIAqDSCAAAAAAgIAAACAEAAEgAABYIAQACQAAE4AAIAQPK7PzPgAAAAAAAAADAAAYAADAAAAAAAAAAAA==

> <PUBCHEM_IUPAC_OPENEYE_NAME>
3-acetoxy-17-hydroxy-14-methoxycarbonyl-4,4,8,12,13,16-hexamethyl-15-oxo-2,3,5,6,7,9-hexahydro-1H-cyclopenta[a]phenanthrene-10-carboxylic acid

> <PUBCHEM_IUPAC_CAS_NAME>
3-acetyloxy-17-hydroxy-14-methoxycarbonyl-4,4,8,12,13,16-hexamethyl-15-oxo-2,3,5,6,7,9-hexahydro-1H-cyclopenta[a]phenanthrene-10-carboxylic acid

> <PUBCHEM_IUPAC_NAME_MARKUP>
3-acetyloxy-17-hydroxy-14-methoxycarbonyl-4,4,8,12,13,16-hexamethyl-15-oxo-2,3,5,6,7,9-hexahydro-1<I>H</I>-cyclopenta[a]phenanthrene-10-carboxylic acid

> <PUBCHEM_IUPAC_NAME>
3-acetyloxy-17-hydroxy-14-methoxycarbonyl-4,4,8,12,13,16-hexamethyl-15-oxo-2,3,5,6,7,9-hexahydro-1H-cyclopenta[a]phenanthrene-10-carboxylic acid

> <PUBCHEM_IUPAC_SYSTEMATIC_NAME>
3-acetyloxy-14-methoxycarbonyl-4,4,8,12,13,16-hexamethyl-17-oxidanyl-15-oxidanylidene-2,3,5,6,7,9-hexahydro-1H-cyclopenta[a]phenanthrene-10-carboxylic acid

> <PUBCHEM_IUPAC_TRADITIONAL_NAME>
3-acetoxy-14-carbomethoxy-17-hydroxy-15-keto-4,4,8,12,13,16-hexamethyl-2,3,5,6,7,9-hexahydro-1H-cyclopenta[a]phenanthrene-10-carboxylic acid

> <PUBCHEM_IUPAC_INCHI>
InChI=1S/C28H38O8/c1-14-13-18-25(6,28(23(34)35-8)21(31)15(2)20(30)26(14,28)7)11-9-17-24(4,5)19(36-16(3)29)10-12-27(17,18)22(32)33/h13,17-19,30H,9-12H2,1-8H3,(H,32,33)

> <PUBCHEM_IUPAC_INCHIKEY>
IIAVWNADOABJOD-UHFFFAOYSA-N

> <PUBCHEM_XLOGP3_AA>
3.9

> <PUBCHEM_EXACT_MASS>
502.25666817

> <PUBCHEM_MOLECULAR_FORMULA>
C28H38O8

> <PUBCHEM_MOLECULAR_WEIGHT>
502.6

> <PUBCHEM_OPENEYE_CAN_SMILES>
CC1=CC2C(CCC3C2(CCC(C3(C)C)OC(=O)C)C(=O)O)(C4(C1(C(=C(C4=O)C)O)C)C(=O)OC)C

> <PUBCHEM_OPENEYE_ISO_SMILES>
CC1=CC2C(CCC3C2(CCC(C3(C)C)OC(=O)C)C(=O)O)(C4(C1(C(=C(C4=O)C)O)C)C(=O)OC)C

> <PUBCHEM_CACTVS_TPSA>
127

> <PUBCHEM_MONOISOTOPIC_WEIGHT>
502.25666817

> <PUBCHEM_TOTAL_CHARGE>
0

> <PUBCHEM_HEAVY_ATOM_COUNT>
36

> <PUBCHEM_ATOM_DEF_STEREO_COUNT>
0

> <PUBCHEM_ATOM_UDEF_STEREO_COUNT>
7

> <PUBCHEM_BOND_DEF_STEREO_COUNT>
0

> <PUBCHEM_BOND_UDEF_STEREO_COUNT>
0

> <PUBCHEM_ISOTOPIC_ATOM_COUNT>
0

> <PUBCHEM_COMPONENT_COUNT>
1

> <PUBCHEM_CACTVS_TAUTO_COUNT>
-1

> <PUBCHEM_COORDINATE_TYPE>
1
5
255

> <PUBCHEM_BONDANNOTATIONS>
20  1  3
10  25  3
11  19  3
12  16  3
13  27  3
17  30  3
9  21  3

$$$$
