 
  -OEChem-10192104252D

 74 78  0     1  0  0  0  0  0999 V2000
    9.1355    0.8095    0.0000 O   0  0  0  0  0  0  0  0  0  0  0  0
   10.6831    0.9711    0.0000 O   0  0  0  0  0  0  0  0  0  0  0  0
    8.1335    4.3205    0.0000 O   0  0  0  0  0  0  0  0  0  0  0  0
    6.0010   -1.5679    0.0000 O   0  0  0  0  0  0  0  0  0  0  0  0
    5.1350   -0.0679    0.0000 O   0  0  0  0  0  0  0  0  0  0  0  0
    4.2690   -1.5679    0.0000 O   0  0  0  0  0  0  0  0  0  0  0  0
    6.0010   -3.5679    0.0000 O   0  0  0  0  0  0  0  0  0  0  0  0
    4.2690   -4.5679    0.0000 O   0  0  0  0  0  0  0  0  0  0  0  0
    2.5369   -3.5679    0.0000 O   0  0  0  0  0  0  0  0  0  0  0  0
    2.5369   -0.5679    0.0000 O   0  0  0  0  0  0  0  0  0  0  0  0
    8.9581    1.7937    0.0000 C   0  0  2  0  0  0  0  0  0  0  0  0
    8.4547    0.8817    0.0000 C   0  0  1  0  0  0  0  0  0  0  0  0
    8.4547    2.6578    0.0000 C   0  0  1  0  0  0  0  0  0  0  0  0
    7.4132    0.8697    0.0000 C   0  0  2  0  0  0  0  0  0  0  0  0
    7.4132    2.6698    0.0000 C   0  0  0  0  0  0  0  0  0  0  0  0
    9.6363    2.6437    0.0000 C   0  0  0  0  0  0  0  0  0  0  0  0
    9.9475    1.6484    0.0000 C   0  0  2  0  0  0  0  0  0  0  0  0
    6.8889    1.7697    0.0000 C   0  0  0  0  0  0  0  0  0  0  0  0
    6.8671   -0.0679    0.0000 C   0  0  2  0  0  0  0  0  0  0  0  0
   10.5993    3.3283    0.0000 C   0  0  1  0  0  0  0  0  0  0  0  0
    9.0224   -0.0429    0.0000 C   0  0  0  0  0  0  0  0  0  0  0  0
   10.6779    2.3314    0.0000 C   0  0  0  0  0  0  0  0  0  0  0  0
    8.8165    3.5900    0.0000 C   0  0  0  0  0  0  0  0  0  0  0  0
    9.5730    1.5447    0.0000 C   0  0  0  0  0  0  0  0  0  0  0  0
    7.4132   -1.0054    0.0000 C   0  0  0  0  0  0  0  0  0  0  0  0
    8.4981   -0.9929    0.0000 C   0  0  0  0  0  0  0  0  0  0  0  0
    9.7709    3.8885    0.0000 C   0  0  0  0  0  0  0  0  0  0  0  0
    6.0010    0.4321    0.0000 C   0  0  0  0  0  0  0  0  0  0  0  0
    6.0010   -0.5679    0.0000 C   0  0  0  0  0  0  0  0  0  0  0  0
    9.9162    4.8779    0.0000 C   0  0  0  0  0  0  0  0  0  0  0  0
    5.1350   -2.0679    0.0000 C   0  0  2  0  0  0  0  0  0  0  0  0
    5.1350   -3.0679    0.0000 C   0  0  1  0  0  0  0  0  0  0  0  0
    4.2690   -3.5679    0.0000 C   0  0  2  0  0  0  0  0  0  0  0  0
    3.4030   -2.0679    0.0000 C   0  0  1  0  0  0  0  0  0  0  0  0
    3.4030   -3.0679    0.0000 C   0  0  1  0  0  0  0  0  0  0  0  0
    2.5369   -1.5679    0.0000 C   0  0  0  0  0  0  0  0  0  0  0  0
    6.5632    0.8697    0.0000 H   0  0  0  0  0  0  0  0  0  0  0  0
    7.5263    3.2794    0.0000 H   0  0  0  0  0  0  0  0  0  0  0  0
    6.8319    2.8856    0.0000 H   0  0  0  0  0  0  0  0  0  0  0  0
    9.4380    2.0563    0.0000 H   0  0  0  0  0  0  0  0  0  0  0  0
   10.1339    2.2739    0.0000 H   0  0  0  0  0  0  0  0  0  0  0  0
    9.6806    1.0888    0.0000 H   0  0  0  0  0  0  0  0  0  0  0  0
    6.4145    2.1689    0.0000 H   0  0  0  0  0  0  0  0  0  0  0  0
    6.4145    1.3706    0.0000 H   0  0  0  0  0  0  0  0  0  0  0  0
   11.4106    3.5820    0.0000 H   0  0  0  0  0  0  0  0  0  0  0  0
    9.5059   -0.4310    0.0000 H   0  0  0  0  0  0  0  0  0  0  0  0
    9.4875    0.3671    0.0000 H   0  0  0  0  0  0  0  0  0  0  0  0
   10.9900    1.7957    0.0000 H   0  0  0  0  0  0  0  0  0  0  0  0
   11.2696    2.5165    0.0000 H   0  0  0  0  0  0  0  0  0  0  0  0
    9.8892    1.0114    0.0000 H   0  0  0  0  0  0  0  0  0  0  0  0
   10.1063    1.8609    0.0000 H   0  0  0  0  0  0  0  0  0  0  0  0
    9.2568    2.0780    0.0000 H   0  0  0  0  0  0  0  0  0  0  0  0
    6.8319   -1.2212    0.0000 H   0  0  0  0  0  0  0  0  0  0  0  0
    7.5263   -1.6150    0.0000 H   0  0  0  0  0  0  0  0  0  0  0  0
    8.3991   -1.6049    0.0000 H   0  0  0  0  0  0  0  0  0  0  0  0
    9.0842   -1.1952    0.0000 H   0  0  0  0  0  0  0  0  0  0  0  0
    9.5359    0.3361    0.0000 H   0  0  0  0  0  0  0  0  0  0  0  0
    6.3110    0.9691    0.0000 H   0  0  0  0  0  0  0  0  0  0  0  0
    5.4641    0.7421    0.0000 H   0  0  0  0  0  0  0  0  0  0  0  0
    5.6910   -0.1048    0.0000 H   0  0  0  0  0  0  0  0  0  0  0  0
   11.2749    1.1561    0.0000 H   0  0  0  0  0  0  0  0  0  0  0  0
   10.4924    5.1066    0.0000 H   0  0  0  0  0  0  0  0  0  0  0  0
    9.4299    5.2626    0.0000 H   0  0  0  0  0  0  0  0  0  0  0  0
    5.1350   -1.4479    0.0000 H   0  0  0  0  0  0  0  0  0  0  0  0
    5.1350   -3.6879    0.0000 H   0  0  0  0  0  0  0  0  0  0  0  0
    3.7320   -3.8779    0.0000 H   0  0  0  0  0  0  0  0  0  0  0  0
    3.4030   -1.4479    0.0000 H   0  0  0  0  0  0  0  0  0  0  0  0
    3.4030   -3.6879    0.0000 H   0  0  0  0  0  0  0  0  0  0  0  0
    6.5380   -3.2579    0.0000 H   0  0  0  0  0  0  0  0  0  0  0  0
    1.9264   -1.4602    0.0000 H   0  0  0  0  0  0  0  0  0  0  0  0
    2.3249   -2.1505    0.0000 H   0  0  0  0  0  0  0  0  0  0  0  0
    3.7320   -4.8779    0.0000 H   0  0  0  0  0  0  0  0  0  0  0  0
    2.0000   -3.2579    0.0000 H   0  0  0  0  0  0  0  0  0  0  0  0
    2.0000   -0.2579    0.0000 H   0  0  0  0  0  0  0  0  0  0  0  0
 11  1  1  6  0  0  0
  1 57  1  0  0  0  0
 17  2  1  6  0  0  0
  2 61  1  0  0  0  0
  3 23  2  0  0  0  0
  4 29  1  0  0  0  0
 31  4  1  1  0  0  0
  5 29  2  0  0  0  0
  6 31  1  0  0  0  0
  6 34  1  0  0  0  0
 32  7  1  6  0  0  0
  7 69  1  0  0  0  0
 33  8  1  1  0  0  0
  8 72  1  0  0  0  0
 35  9  1  6  0  0  0
  9 73  1  0  0  0  0
 10 36  1  0  0  0  0
 10 74  1  0  0  0  0
 11 12  1  0  0  0  0
 11 13  1  0  0  0  0
 11 17  1  0  0  0  0
 12 14  1  0  0  0  0
 12 21  1  0  0  0  0
 12 24  1  1  0  0  0
 13 15  1  1  0  0  0
 13 16  1  0  0  0  0
 13 23  1  0  0  0  0
 14 18  1  0  0  0  0
 14 19  1  0  0  0  0
 14 37  1  6  0  0  0
 15 18  1  0  0  0  0
 15 38  1  0  0  0  0
 15 39  1  0  0  0  0
 16 20  1  0  0  0  0
 16 40  1  0  0  0  0
 16 41  1  0  0  0  0
 17 22  1  0  0  0  0
 17 42  1  0  0  0  0
 18 43  1  0  0  0  0
 18 44  1  0  0  0  0
 19 25  1  0  0  0  0
 19 28  1  6  0  0  0
 19 29  1  0  0  0  0
 20 22  1  0  0  0  0
 20 27  1  0  0  0  0
 20 45  1  1  0  0  0
 21 26  1  0  0  0  0
 21 46  1  0  0  0  0
 21 47  1  0  0  0  0
 22 48  1  0  0  0  0
 22 49  1  0  0  0  0
 23 27  1  0  0  0  0
 24 50  1  0  0  0  0
 24 51  1  0  0  0  0
 24 52  1  0  0  0  0
 25 26  1  0  0  0  0
 25 53  1  0  0  0  0
 25 54  1  0  0  0  0
 26 55  1  0  0  0  0
 26 56  1  0  0  0  0
 27 30  2  0  0  0  0
 28 58  1  0  0  0  0
 28 59  1  0  0  0  0
 28 60  1  0  0  0  0
 30 62  1  0  0  0  0
 30 63  1  0  0  0  0
 31 32  1  0  0  0  0
 31 64  1  0  0  0  0
 32 33  1  0  0  0  0
 32 65  1  0  0  0  0
 33 35  1  0  0  0  0
 33 66  1  0  0  0  0
 34 35  1  0  0  0  0
 34 36  1  1  0  0  0
 34 67  1  0  0  0  0
 35 68  1  0  0  0  0
 36 70  1  0  0  0  0
 36 71  1  0  0  0  0
M  END
> <PUBCHEM_COMPOUND_CID>
21672520

> <PUBCHEM_COMPOUND_CANONICALIZED>
1

> <PUBCHEM_CACTVS_COMPLEXITY>
968

> <PUBCHEM_CACTVS_HBOND_ACCEPTOR>
10

> <PUBCHEM_CACTVS_HBOND_DONOR>
6

> <PUBCHEM_CACTVS_ROTATABLE_BOND>
4

> <PUBCHEM_CACTVS_SUBSKEYS>
AAADcfB4PAAAAAAAAAAAAAAAAAAAAYAAAAA0YMEABgAAAADAAAAAGgAACAAAD1SwgAMCCAAABgCIAoDSCAAAAAAgAAAAAAEAAEgREBYAAQAiQAAFoAAHAIHK7PzPgAAAAAAAAADAAAYAADCAAQAAAAAAAA==

> <PUBCHEM_IUPAC_OPENEYE_NAME>
[(2S,3R,4S,5S,6R)-3,4,5-trihydroxy-6-(hydroxymethyl)tetrahydropyran-2-yl] (1R,4S,5R,9R,10R,11S,13S)-10,11-dihydroxy-5,9-dimethyl-14-methylene-15-oxo-tetracyclo[11.2.1.01,10.04,9]hexadecane-5-carboxylate

> <PUBCHEM_IUPAC_CAS_NAME>
(1R,4S,5R,9R,10R,11S,13S)-10,11-dihydroxy-5,9-dimethyl-14-methylene-15-oxo-5-tetracyclo[11.2.1.01,10.04,9]hexadecanecarboxylic acid [(2S,3R,4S,5S,6R)-3,4,5-trihydroxy-6-(hydroxymethyl)-2-oxanyl] ester

> <PUBCHEM_IUPAC_NAME_MARKUP>
[(2<I>S</I>,3<I>R</I>,4<I>S</I>,5<I>S</I>,6<I>R</I>)-3,4,5-trihydroxy-6-(hydroxymethyl)oxan-2-yl] (1<I>R</I>,4<I>S</I>,5<I>R</I>,9<I>R</I>,10<I>R</I>,11<I>S</I>,13<I>S</I>)-10,11-dihydroxy-5,9-dimethyl-14-methylidene-15-oxotetracyclo[11.2.1.0<SUP>1,10</SUP>.0<SUP>4,9</SUP>]hexadecane-5-carboxylate

> <PUBCHEM_IUPAC_NAME>
[(2S,3R,4S,5S,6R)-3,4,5-trihydroxy-6-(hydroxymethyl)oxan-2-yl] (1R,4S,5R,9R,10R,11S,13S)-10,11-dihydroxy-5,9-dimethyl-14-methylidene-15-oxotetracyclo[11.2.1.01,10.04,9]hexadecane-5-carboxylate

> <PUBCHEM_IUPAC_SYSTEMATIC_NAME>
[(2S,3R,4S,5S,6R)-6-(hydroxymethyl)-3,4,5-tris(oxidanyl)oxan-2-yl] (1R,4S,5R,9R,10R,11S,13S)-5,9-dimethyl-14-methylidene-10,11-bis(oxidanyl)-15-oxidanylidene-tetracyclo[11.2.1.01,10.04,9]hexadecane-5-carboxylate

> <PUBCHEM_IUPAC_TRADITIONAL_NAME>
(1R,4S,5R,9R,10R,11S,13S)-10,11-dihydroxy-15-keto-5,9-dimethyl-14-methylene-tetracyclo[11.2.1.01,10.04,9]hexadecane-5-carboxylic acid [(2S,3R,4S,5S,6R)-3,4,5-trihydroxy-6-methylol-tetrahydropyran-2-yl] ester

> <PUBCHEM_IUPAC_INCHI>
InChI=1S/C26H38O10/c1-12-13-9-16(28)26(34)24(3)7-4-6-23(2,15(24)5-8-25(26,10-13)20(12)32)22(33)36-21-19(31)18(30)17(29)14(11-27)35-21/h13-19,21,27-31,34H,1,4-11H2,2-3H3/t13-,14-,15-,16+,17-,18+,19-,21+,23-,24-,25+,26-/m1/s1

> <PUBCHEM_IUPAC_INCHIKEY>
OQZUFKKMWLOWKV-BXQSGASKSA-N

> <PUBCHEM_XLOGP3_AA>
0

> <PUBCHEM_EXACT_MASS>
510.24649740

> <PUBCHEM_MOLECULAR_FORMULA>
C26H38O10

> <PUBCHEM_MOLECULAR_WEIGHT>
510.6

> <PUBCHEM_OPENEYE_CAN_SMILES>
CC1(CCCC2(C1CCC34C2(C(CC(C3)C(=C)C4=O)O)O)C)C(=O)OC5C(C(C(C(O5)CO)O)O)O

> <PUBCHEM_OPENEYE_ISO_SMILES>
C[C@]1(CCC[C@@]2([C@@H]1CC[C@]34[C@]2([C@H](C[C@H](C3)C(=C)C4=O)O)O)C)C(=O)O[C@H]5[C@@H]([C@H]([C@@H]([C@H](O5)CO)O)O)O

> <PUBCHEM_CACTVS_TPSA>
174

> <PUBCHEM_MONOISOTOPIC_WEIGHT>
510.24649740

> <PUBCHEM_TOTAL_CHARGE>
0

> <PUBCHEM_HEAVY_ATOM_COUNT>
36

> <PUBCHEM_ATOM_DEF_STEREO_COUNT>
12

> <PUBCHEM_ATOM_UDEF_STEREO_COUNT>
0

> <PUBCHEM_BOND_DEF_STEREO_COUNT>
0

> <PUBCHEM_BOND_UDEF_STEREO_COUNT>
0

> <PUBCHEM_ISOTOPIC_ATOM_COUNT>
0

> <PUBCHEM_COMPONENT_COUNT>
1

> <PUBCHEM_CACTVS_TAUTO_COUNT>
-1

> <PUBCHEM_COORDINATE_TYPE>
1
5
255

> <PUBCHEM_BONDANNOTATIONS>
11  1  6
12  24  5
13  15  5
14  37  6
19  28  6
17  2  6
20  45  5
34  36  5
31  4  5
32  7  6
33  8  5
35  9  6

$$$$
