 
  -OEChem-10192104192D

 25 25  0     0  0  0  0  0  0999 V2000
    2.5369    0.1550    0.0000 O   0  0  0  0  0  0  0  0  0  0  0  0
    2.5369   -1.8450    0.0000 O   0  0  0  0  0  0  0  0  0  0  0  0
    4.2690   -2.8450    0.0000 O   0  0  0  0  0  0  0  0  0  0  0  0
    4.2690    0.1550    0.0000 C   0  0  0  0  0  0  0  0  0  0  0  0
    3.4030   -0.3450    0.0000 C   0  0  0  0  0  0  0  0  0  0  0  0
    4.2690    1.1550    0.0000 C   0  0  0  0  0  0  0  0  0  0  0  0
    5.1350   -0.3450    0.0000 C   0  0  0  0  0  0  0  0  0  0  0  0
    5.1350    2.6550    0.0000 C   0  0  0  0  0  0  0  0  0  0  0  0
    3.4030   -1.3450    0.0000 C   0  0  0  0  0  0  0  0  0  0  0  0
    5.1350    1.6550    0.0000 C   0  0  0  0  0  0  0  0  0  0  0  0
    4.2690   -1.8450    0.0000 C   0  0  0  0  0  0  0  0  0  0  0  0
    5.1350   -1.3450    0.0000 C   0  0  0  0  0  0  0  0  0  0  0  0
    6.0010    3.1550    0.0000 C   0  0  0  0  0  0  0  0  0  0  0  0
    3.7320    1.4650    0.0000 H   0  0  0  0  0  0  0  0  0  0  0  0
    5.6720   -0.0350    0.0000 H   0  0  0  0  0  0  0  0  0  0  0  0
    4.9230    3.2376    0.0000 H   0  0  0  0  0  0  0  0  0  0  0  0
    4.5244    2.5473    0.0000 H   0  0  0  0  0  0  0  0  0  0  0  0
    5.6720    1.3450    0.0000 H   0  0  0  0  0  0  0  0  0  0  0  0
    5.6720   -1.6550    0.0000 H   0  0  0  0  0  0  0  0  0  0  0  0
    6.3110    2.6181    0.0000 H   0  0  0  0  0  0  0  0  0  0  0  0
    6.5380    3.4650    0.0000 H   0  0  0  0  0  0  0  0  0  0  0  0
    5.6910    3.6919    0.0000 H   0  0  0  0  0  0  0  0  0  0  0  0
    2.0000   -0.1550    0.0000 H   0  0  0  0  0  0  0  0  0  0  0  0
    2.5369   -2.4650    0.0000 H   0  0  0  0  0  0  0  0  0  0  0  0
    4.8059   -3.1550    0.0000 H   0  0  0  0  0  0  0  0  0  0  0  0
  1  5  1  0  0  0  0
  1 23  1  0  0  0  0
  2  9  1  0  0  0  0
  2 24  1  0  0  0  0
  3 11  1  0  0  0  0
  3 25  1  0  0  0  0
  4  5  2  0  0  0  0
  4  6  1  0  0  0  0
  4  7  1  0  0  0  0
  5  9  1  0  0  0  0
  6 10  2  0  0  0  0
  6 14  1  0  0  0  0
  7 12  2  0  0  0  0
  7 15  1  0  0  0  0
  8 10  1  0  0  0  0
  8 13  1  0  0  0  0
  8 16  1  0  0  0  0
  8 17  1  0  0  0  0
  9 11  2  0  0  0  0
 10 18  1  0  0  0  0
 11 12  1  0  0  0  0
 12 19  1  0  0  0  0
 13 20  1  0  0  0  0
 13 21  1  0  0  0  0
 13 22  1  0  0  0  0
M  END
> <PUBCHEM_COMPOUND_CID>
19910489

> <PUBCHEM_COMPOUND_CANONICALIZED>
1

> <PUBCHEM_CACTVS_COMPLEXITY>
179

> <PUBCHEM_CACTVS_HBOND_ACCEPTOR>
3

> <PUBCHEM_CACTVS_HBOND_DONOR>
3

> <PUBCHEM_CACTVS_ROTATABLE_BOND>
2

> <PUBCHEM_CACTVS_SUBSKEYS>
AAADccBwMAAAAAAAAAAAAAAAAAAAAAAAAAAwAAAAAAAAAAABAAAAGgAACAAADASAmAAyBoAAAgCAAiBCAAACAAAgIAAIiAAGiIgJJyKCERKAcAElwBUJmAeA4DQOIAABCAAIQABAAAIQABCAAAAAAAAAAA==

> <PUBCHEM_IUPAC_OPENEYE_NAME>
4-[(E)-but-1-enyl]benzene-1,2,3-triol

> <PUBCHEM_IUPAC_CAS_NAME>
4-[(E)-but-1-enyl]benzene-1,2,3-triol

> <PUBCHEM_IUPAC_NAME_MARKUP>
4-[(<I>E</I>)-but-1-enyl]benzene-1,2,3-triol

> <PUBCHEM_IUPAC_NAME>
4-[(E)-but-1-enyl]benzene-1,2,3-triol

> <PUBCHEM_IUPAC_SYSTEMATIC_NAME>
4-[(E)-but-1-enyl]benzene-1,2,3-triol

> <PUBCHEM_IUPAC_TRADITIONAL_NAME>
4-[(E)-but-1-enyl]pyrogallol

> <PUBCHEM_IUPAC_INCHI>
InChI=1S/C10H12O3/c1-2-3-4-7-5-6-8(11)10(13)9(7)12/h3-6,11-13H,2H2,1H3/b4-3+

> <PUBCHEM_IUPAC_INCHIKEY>
XZANIHMKSGCHOI-ONEGZZNKSA-N

> <PUBCHEM_XLOGP3_AA>
2.3

> <PUBCHEM_EXACT_MASS>
180.078644241

> <PUBCHEM_MOLECULAR_FORMULA>
C10H12O3

> <PUBCHEM_MOLECULAR_WEIGHT>
180.20

> <PUBCHEM_OPENEYE_CAN_SMILES>
CCC=CC1=C(C(=C(C=C1)O)O)O

> <PUBCHEM_OPENEYE_ISO_SMILES>
CC/C=C/C1=C(C(=C(C=C1)O)O)O

> <PUBCHEM_CACTVS_TPSA>
60.7

> <PUBCHEM_MONOISOTOPIC_WEIGHT>
180.078644241

> <PUBCHEM_TOTAL_CHARGE>
0

> <PUBCHEM_HEAVY_ATOM_COUNT>
13

> <PUBCHEM_ATOM_DEF_STEREO_COUNT>
0

> <PUBCHEM_ATOM_UDEF_STEREO_COUNT>
0

> <PUBCHEM_BOND_DEF_STEREO_COUNT>
1

> <PUBCHEM_BOND_UDEF_STEREO_COUNT>
0

> <PUBCHEM_ISOTOPIC_ATOM_COUNT>
0

> <PUBCHEM_COMPONENT_COUNT>
1

> <PUBCHEM_CACTVS_TAUTO_COUNT>
-1

> <PUBCHEM_COORDINATE_TYPE>
1
5
255

> <PUBCHEM_BONDANNOTATIONS>
11  12  8
4  5  8
4  7  8
5  9  8
7  12  8
9  11  8

$$$$
