 
  -OEChem-10192103432D

 36 36  0     1  0  0  0  0  0999 V2000
    4.2690    1.6900    0.0000 S   0  0  0  0  0  0  0  0  0  0  0  0
    6.0010   -0.3100    0.0000 O   0  0  0  0  0  0  0  0  0  0  0  0
    4.2690   -1.3100    0.0000 O   0  0  0  0  0  0  0  0  0  0  0  0
    6.0010    1.6900    0.0000 O   0  0  0  0  0  0  0  0  0  0  0  0
    2.5369    0.6900    0.0000 O   0  0  0  0  0  0  0  0  0  0  0  0
    6.0010   -1.3100    0.0000 O   0  0  0  0  0  0  0  0  0  0  0  0
    2.5369    2.6900    0.0000 O   0  0  0  0  0  0  0  0  0  0  0  0
    4.2690    2.6900    0.0000 O   0  0  0  0  0  0  0  0  0  0  0  0
    6.8671    0.1900    0.0000 O   0  0  0  0  0  0  0  0  0  0  0  0
    7.7331   -1.3100    0.0000 O   0  0  0  0  0  0  0  0  0  0  0  0
    4.2690   -0.3100    0.0000 C   0  0  3  0  0  0  0  0  0  0  0  0
    5.1350    0.1900    0.0000 C   0  0  3  0  0  0  0  0  0  0  0  0
    3.4030    0.1900    0.0000 C   0  0  0  0  0  0  0  0  0  0  0  0
    3.4030    1.1900    0.0000 C   0  0  3  0  0  0  0  0  0  0  0  0
    5.1350    1.1900    0.0000 C   0  0  3  0  0  0  0  0  0  0  0  0
    3.4030    2.1900    0.0000 C   0  0  0  0  0  0  0  0  0  0  0  0
    6.8671    1.1900    0.0000 C   0  0  0  0  0  0  0  0  0  0  0  0
    7.7331    1.6900    0.0000 C   0  0  0  0  0  0  0  0  0  0  0  0
    6.8671   -1.8100    0.0000 C   0  0  0  0  0  0  0  0  0  0  0  0
    6.8671   -2.8100    0.0000 C   0  0  0  0  0  0  0  0  0  0  0  0
    7.7331    2.6900    0.0000 C   0  0  0  0  0  0  0  0  0  0  0  0
    7.7331   -3.3100    0.0000 C   0  0  0  0  0  0  0  0  0  0  0  0
    3.7320   -0.6200    0.0000 H   0  0  0  0  0  0  0  0  0  0  0  0
    5.1350   -0.4300    0.0000 H   0  0  0  0  0  0  0  0  0  0  0  0
    2.7924    0.2977    0.0000 H   0  0  0  0  0  0  0  0  0  0  0  0
    3.1909   -0.3926    0.0000 H   0  0  0  0  0  0  0  0  0  0  0  0
    5.1350    1.8100    0.0000 H   0  0  0  0  0  0  0  0  0  0  0  0
    3.7320   -1.6200    0.0000 H   0  0  0  0  0  0  0  0  0  0  0  0
    2.0000    1.0000    0.0000 H   0  0  0  0  0  0  0  0  0  0  0  0
    2.5369    3.3100    0.0000 H   0  0  0  0  0  0  0  0  0  0  0  0
    8.2700    1.3800    0.0000 H   0  0  0  0  0  0  0  0  0  0  0  0
    6.3301   -3.1200    0.0000 H   0  0  0  0  0  0  0  0  0  0  0  0
    8.2700    3.0000    0.0000 H   0  0  0  0  0  0  0  0  0  0  0  0
    7.1962    3.0000    0.0000 H   0  0  0  0  0  0  0  0  0  0  0  0
    7.7331   -3.9300    0.0000 H   0  0  0  0  0  0  0  0  0  0  0  0
    8.2700   -3.0000    0.0000 H   0  0  0  0  0  0  0  0  0  0  0  0
  1 14  1  0  0  0  0
  1 15  1  0  0  0  0
  2  6  1  0  0  0  0
  2 12  1  0  0  0  0
  3 11  1  0  0  0  0
  3 28  1  0  0  0  0
  4 15  1  0  0  0  0
  4 17  1  0  0  0  0
  5 14  1  0  0  0  0
  5 29  1  0  0  0  0
  6 19  1  0  0  0  0
  7 16  1  0  0  0  0
  7 30  1  0  0  0  0
  8 16  2  0  0  0  0
  9 17  2  0  0  0  0
 10 19  2  0  0  0  0
 11 12  1  0  0  0  0
 11 13  1  0  0  0  0
 11 23  1  0  0  0  0
 12 15  1  0  0  0  0
 12 24  1  0  0  0  0
 13 14  1  0  0  0  0
 13 25  1  0  0  0  0
 13 26  1  0  0  0  0
 14 16  1  0  0  0  0
 15 27  1  0  0  0  0
 17 18  1  0  0  0  0
 18 21  2  0  0  0  0
 18 31  1  0  0  0  0
 19 20  1  0  0  0  0
 20 22  2  0  0  0  0
 20 32  1  0  0  0  0
 21 33  1  0  0  0  0
 21 34  1  0  0  0  0
 22 35  1  0  0  0  0
 22 36  1  0  0  0  0
M  END
> <PUBCHEM_COMPOUND_CID>
90885576

> <PUBCHEM_COMPOUND_CANONICALIZED>
1

> <PUBCHEM_CACTVS_COMPLEXITY>
491

> <PUBCHEM_CACTVS_HBOND_ACCEPTOR>
10

> <PUBCHEM_CACTVS_HBOND_DONOR>
3

> <PUBCHEM_CACTVS_ROTATABLE_BOND>
8

> <PUBCHEM_CACTVS_SUBSKEYS>
AAADccBwPABAAAAAAAAAAAAAAAAAAAAAAAAkAAAAAAAAAAAAAAAAGgQADAAACBSkwAKACAAABgiIACDSCAIAAAAAABAIAAFAAEABFBIgIAACQAAFAAAjIIHKbAxAAAAAAAAAAAAAAAAAAAAAAAAAAAAAAA==

> <PUBCHEM_IUPAC_OPENEYE_NAME>
2,4-dihydroxy-6-prop-2-enoyloxy-5-prop-2-enoylperoxy-tetrahydrothiopyran-2-carboxylic acid

> <PUBCHEM_IUPAC_CAS_NAME>
2,4-dihydroxy-6-(1-oxoprop-2-enoxy)-5-(1-oxoprop-2-enyldioxy)-2-thianecarboxylic acid

> <PUBCHEM_IUPAC_NAME_MARKUP>
2,4-dihydroxy-6-prop-2-enoyloxy-5-prop-2-enoylperoxythiane-2-carboxylic acid

> <PUBCHEM_IUPAC_NAME>
2,4-dihydroxy-6-prop-2-enoyloxy-5-prop-2-enoylperoxythiane-2-carboxylic acid

> <PUBCHEM_IUPAC_SYSTEMATIC_NAME>
2,4-bis(oxidanyl)-6-prop-2-enoyloxy-5-prop-2-enoylperoxy-thiane-2-carboxylic acid

> <PUBCHEM_IUPAC_TRADITIONAL_NAME>
6-acryloyloxy-5-acryloylperoxy-2,4-dihydroxy-tetrahydrothiopyran-2-carboxylic acid

> <PUBCHEM_IUPAC_INCHI>
InChI=1S/C12H14O9S/c1-3-7(14)19-10-9(21-20-8(15)4-2)6(13)5-12(18,22-10)11(16)17/h3-4,6,9-10,13,18H,1-2,5H2,(H,16,17)

> <PUBCHEM_IUPAC_INCHIKEY>
IQGINARLRCMROV-UHFFFAOYSA-N

> <PUBCHEM_XLOGP3_AA>
0.5

> <PUBCHEM_EXACT_MASS>
334.03585319

> <PUBCHEM_MOLECULAR_FORMULA>
C12H14O9S

> <PUBCHEM_MOLECULAR_WEIGHT>
334.30

> <PUBCHEM_OPENEYE_CAN_SMILES>
C=CC(=O)OC1C(C(CC(S1)(C(=O)O)O)O)OOC(=O)C=C

> <PUBCHEM_OPENEYE_ISO_SMILES>
C=CC(=O)OC1C(C(CC(S1)(C(=O)O)O)O)OOC(=O)C=C

> <PUBCHEM_CACTVS_TPSA>
165

> <PUBCHEM_MONOISOTOPIC_WEIGHT>
334.03585319

> <PUBCHEM_TOTAL_CHARGE>
0

> <PUBCHEM_HEAVY_ATOM_COUNT>
22

> <PUBCHEM_ATOM_DEF_STEREO_COUNT>
0

> <PUBCHEM_ATOM_UDEF_STEREO_COUNT>
4

> <PUBCHEM_BOND_DEF_STEREO_COUNT>
0

> <PUBCHEM_BOND_UDEF_STEREO_COUNT>
0

> <PUBCHEM_ISOTOPIC_ATOM_COUNT>
0

> <PUBCHEM_COMPONENT_COUNT>
1

> <PUBCHEM_CACTVS_TAUTO_COUNT>
-1

> <PUBCHEM_COORDINATE_TYPE>
1
5
255

> <PUBCHEM_BONDANNOTATIONS>
12  2  3
11  3  3
15  4  3
14  5  3

$$$$
