 
  -OEChem-10192104082D

 27 27  0     1  0  0  0  0  0999 V2000
    6.3461    0.5236    0.0000 O   0  0  0  0  0  0  0  0  0  0  0  0
    5.8978   -1.1494    0.0000 O   0  0  0  0  0  0  0  0  0  0  0  0
    5.1213    1.7483    0.0000 O   0  0  0  0  0  0  0  0  0  0  0  0
    4.2247   -1.5977    0.0000 O   0  0  0  0  0  0  0  0  0  0  0  0
    3.0000   -0.3730    0.0000 C   0  0  0  0  0  0  0  0  0  0  0  0
    3.0000   -1.3730    0.0000 C   0  0  0  0  0  0  0  0  0  0  0  0
    2.0000   -0.3730    0.0000 C   0  0  0  0  0  0  0  0  0  0  0  0
    3.7071    0.3341    0.0000 C   0  0  3  0  0  0  0  0  0  0  0  0
    2.0000   -1.3730    0.0000 C   0  0  0  0  0  0  0  0  0  0  0  0
    4.6730    0.0753    0.0000 C   0  0  0  0  0  0  0  0  0  0  0  0
    3.4483    1.3000    0.0000 C   0  0  0  0  0  0  0  0  0  0  0  0
    5.3801    0.7824    0.0000 C   0  0  0  0  0  0  0  0  0  0  0  0
    4.9318   -0.8906    0.0000 C   0  0  0  0  0  0  0  0  0  0  0  0
    3.5728   -0.6103    0.0000 H   0  0  0  0  0  0  0  0  0  0  0  0
    3.0000   -1.9930    0.0000 H   0  0  0  0  0  0  0  0  0  0  0  0
    3.6200   -1.3730    0.0000 H   0  0  0  0  0  0  0  0  0  0  0  0
    2.0000    0.2470    0.0000 H   0  0  0  0  0  0  0  0  0  0  0  0
    1.3800   -0.3730    0.0000 H   0  0  0  0  0  0  0  0  0  0  0  0
    4.1455    0.7725    0.0000 H   0  0  0  0  0  0  0  0  0  0  0  0
    1.3800   -1.3730    0.0000 H   0  0  0  0  0  0  0  0  0  0  0  0
    2.0000   -1.9930    0.0000 H   0  0  0  0  0  0  0  0  0  0  0  0
    5.2719   -0.0852    0.0000 H   0  0  0  0  0  0  0  0  0  0  0  0
    4.0472    1.4605    0.0000 H   0  0  0  0  0  0  0  0  0  0  0  0
    3.2878    1.8989    0.0000 H   0  0  0  0  0  0  0  0  0  0  0  0
    2.8494    1.1396    0.0000 H   0  0  0  0  0  0  0  0  0  0  0  0
    6.7845    0.9620    0.0000 H   0  0  0  0  0  0  0  0  0  0  0  0
    6.0582   -1.7483    0.0000 H   0  0  0  0  0  0  0  0  0  0  0  0
  1 12  1  0  0  0  0
  1 26  1  0  0  0  0
  2 13  1  0  0  0  0
  2 27  1  0  0  0  0
  3 12  2  0  0  0  0
  4 13  2  0  0  0  0
  5  6  1  0  0  0  0
  5  7  1  0  0  0  0
  5  8  1  0  0  0  0
  5 14  1  0  0  0  0
  6  9  1  0  0  0  0
  6 15  1  0  0  0  0
  6 16  1  0  0  0  0
  7  9  1  0  0  0  0
  7 17  1  0  0  0  0
  7 18  1  0  0  0  0
  8 10  1  0  0  0  0
  8 11  1  0  0  0  0
  8 19  1  0  0  0  0
  9 20  1  0  0  0  0
  9 21  1  0  0  0  0
 10 12  1  0  0  0  0
 10 13  1  0  0  0  0
 10 22  1  0  0  0  0
 11 23  1  0  0  0  0
 11 24  1  0  0  0  0
 11 25  1  0  0  0  0
M  END
> <PUBCHEM_COMPOUND_CID>
124108083

> <PUBCHEM_COMPOUND_CANONICALIZED>
1

> <PUBCHEM_CACTVS_COMPLEXITY>
206

> <PUBCHEM_CACTVS_HBOND_ACCEPTOR>
4

> <PUBCHEM_CACTVS_HBOND_DONOR>
2

> <PUBCHEM_CACTVS_ROTATABLE_BOND>
4

> <PUBCHEM_CACTVS_SUBSKEYS>
AAADccBwOAAAAAAAAAAAAAAAAABgAAAAAAAAAAAAAAAAAAAAAAAAGgAACAAADQCAgAACCAAAAgAIAACQCAAAAAAAAAAAAAEAAAAAABYIAAAAQAAFIAAAAAGIyGCOgAAAAAAAAAAAAAAAAAAAAAAAAAAAAA==

> <PUBCHEM_IUPAC_OPENEYE_NAME>
2-(1-cyclobutylethyl)propanedioic acid

> <PUBCHEM_IUPAC_CAS_NAME>
2-(1-cyclobutylethyl)propanedioic acid

> <PUBCHEM_IUPAC_NAME_MARKUP>
2-(1-cyclobutylethyl)propanedioic acid

> <PUBCHEM_IUPAC_NAME>
2-(1-cyclobutylethyl)propanedioic acid

> <PUBCHEM_IUPAC_SYSTEMATIC_NAME>
2-(1-cyclobutylethyl)propanedioic acid

> <PUBCHEM_IUPAC_TRADITIONAL_NAME>
2-(1-cyclobutylethyl)malonic acid

> <PUBCHEM_IUPAC_INCHI>
InChI=1S/C9H14O4/c1-5(6-3-2-4-6)7(8(10)11)9(12)13/h5-7H,2-4H2,1H3,(H,10,11)(H,12,13)

> <PUBCHEM_IUPAC_INCHIKEY>
IRIBCBZPYUOOSN-UHFFFAOYSA-N

> <PUBCHEM_XLOGP3_AA>
2

> <PUBCHEM_EXACT_MASS>
186.08920892

> <PUBCHEM_MOLECULAR_FORMULA>
C9H14O4

> <PUBCHEM_MOLECULAR_WEIGHT>
186.20

> <PUBCHEM_OPENEYE_CAN_SMILES>
CC(C1CCC1)C(C(=O)O)C(=O)O

> <PUBCHEM_OPENEYE_ISO_SMILES>
CC(C1CCC1)C(C(=O)O)C(=O)O

> <PUBCHEM_CACTVS_TPSA>
74.6

> <PUBCHEM_MONOISOTOPIC_WEIGHT>
186.08920892

> <PUBCHEM_TOTAL_CHARGE>
0

> <PUBCHEM_HEAVY_ATOM_COUNT>
13

> <PUBCHEM_ATOM_DEF_STEREO_COUNT>
0

> <PUBCHEM_ATOM_UDEF_STEREO_COUNT>
1

> <PUBCHEM_BOND_DEF_STEREO_COUNT>
0

> <PUBCHEM_BOND_UDEF_STEREO_COUNT>
0

> <PUBCHEM_ISOTOPIC_ATOM_COUNT>
0

> <PUBCHEM_COMPONENT_COUNT>
1

> <PUBCHEM_CACTVS_TAUTO_COUNT>
-1

> <PUBCHEM_COORDINATE_TYPE>
1
5
255

> <PUBCHEM_BONDANNOTATIONS>
8  11  3

$$$$
