 
  -OEChem-10192104292D

 74 78  0     1  0  0  0  0  0999 V2000
    9.7942   -1.2779    0.0000 O   0  0  0  0  0  0  0  0  0  0  0  0
    8.0622   -3.2779    0.0000 O   0  0  0  0  0  0  0  0  0  0  0  0
    9.7942   -4.2779    0.0000 O   0  0  0  0  0  0  0  0  0  0  0  0
   11.5263   -1.2779    0.0000 O   0  0  0  0  0  0  0  0  0  0  0  0
   11.5263   -3.2779    0.0000 O   0  0  0  0  0  0  0  0  0  0  0  0
    7.1962   -1.7779    0.0000 O   0  0  0  0  0  0  0  0  0  0  0  0
   13.2822    1.7846    0.0000 O   0  0  0  0  0  0  0  0  0  0  0  0
    6.3301   -0.2779    0.0000 O   0  0  0  0  0  0  0  0  0  0  0  0
    9.7800    1.8012    0.0000 O   0  0  0  0  0  0  0  0  0  0  0  0
   10.6900    3.2946    0.0000 O   0  0  0  0  0  0  0  0  0  0  0  0
    4.5981   -4.2779    0.0000 O   0  0  0  0  0  0  0  0  0  0  0  0
    2.8660   -1.2779    0.0000 O   0  0  0  0  0  0  0  0  0  0  0  0
    2.8660   -3.2779    0.0000 O   0  0  0  0  0  0  0  0  0  0  0  0
    8.9282   -2.7779    0.0000 C   0  0  1  0  0  0  0  0  0  0  0  0
    9.7942   -3.2779    0.0000 C   0  0  1  0  0  0  0  0  0  0  0  0
    8.9282   -1.7779    0.0000 C   0  0  1  0  0  0  0  0  0  0  0  0
   10.6603   -2.7779    0.0000 C   0  0  2  0  0  0  0  0  0  0  0  0
   10.6603   -1.7779    0.0000 C   0  0  1  0  0  0  0  0  0  0  0  0
    8.0622   -1.2779    0.0000 C   0  0  0  0  0  0  0  0  0  0  0  0
   11.5263   -0.2779    0.0000 C   0  0  0  0  0  0  0  0  0  0  0  0
   12.4263    0.2464    0.0000 C   0  0  0  0  0  0  0  0  0  0  0  0
   10.6262    0.2464    0.0000 C   0  0  0  0  0  0  0  0  0  0  0  0
    6.3301   -1.2779    0.0000 C   0  0  0  0  0  0  0  0  0  0  0  0
   12.4143    1.2880    0.0000 C   0  0  0  0  0  0  0  0  0  0  0  0
   11.5502    1.7913    0.0000 C   0  0  0  0  0  0  0  0  0  0  0  0
   10.6383    1.2880    0.0000 C   0  0  0  0  0  0  0  0  0  0  0  0
    5.4641   -1.7779    0.0000 C   0  0  0  0  0  0  0  0  0  0  0  0
   11.5541    2.7913    0.0000 C   0  0  0  0  0  0  0  0  0  0  0  0
   13.2861    2.7846    0.0000 C   0  0  0  0  0  0  0  0  0  0  0  0
    4.5981   -1.2779    0.0000 C   0  0  0  0  0  0  0  0  0  0  0  0
    5.4641   -2.7779    0.0000 C   0  0  0  0  0  0  0  0  0  0  0  0
   12.4220    3.2879    0.0000 C   0  0  0  0  0  0  0  0  0  0  0  0
    4.5981   -3.2779    0.0000 C   0  0  0  0  0  0  0  0  0  0  0  0
    3.7320   -1.7779    0.0000 C   0  0  0  0  0  0  0  0  0  0  0  0
   14.1540    3.2812    0.0000 C   0  0  0  0  0  0  0  0  0  0  0  0
    3.7320   -2.7779    0.0000 C   0  0  0  0  0  0  0  0  0  0  0  0
   14.1579    4.2812    0.0000 C   0  0  0  0  0  0  0  0  0  0  0  0
   15.0181    2.7779    0.0000 C   0  0  0  0  0  0  0  0  0  0  0  0
   15.0258    4.7779    0.0000 C   0  0  0  0  0  0  0  0  0  0  0  0
   15.8861    3.2746    0.0000 C   0  0  0  0  0  0  0  0  0  0  0  0
   15.8899    4.2746    0.0000 C   0  0  0  0  0  0  0  0  0  0  0  0
    3.7320   -4.7779    0.0000 C   0  0  0  0  0  0  0  0  0  0  0  0
    2.8660   -0.2779    0.0000 C   0  0  0  0  0  0  0  0  0  0  0  0
    2.0000   -2.7779    0.0000 C   0  0  0  0  0  0  0  0  0  0  0  0
    8.9282   -3.3979    0.0000 H   0  0  0  0  0  0  0  0  0  0  0  0
   10.3312   -3.5879    0.0000 H   0  0  0  0  0  0  0  0  0  0  0  0
    8.9282   -1.1579    0.0000 H   0  0  0  0  0  0  0  0  0  0  0  0
   10.6603   -3.3979    0.0000 H   0  0  0  0  0  0  0  0  0  0  0  0
   11.1972   -2.0879    0.0000 H   0  0  0  0  0  0  0  0  0  0  0  0
    8.4607   -0.8030    0.0000 H   0  0  0  0  0  0  0  0  0  0  0  0
    7.6636   -0.8030    0.0000 H   0  0  0  0  0  0  0  0  0  0  0  0
    8.0622   -3.8979    0.0000 H   0  0  0  0  0  0  0  0  0  0  0  0
    9.2573   -4.5879    0.0000 H   0  0  0  0  0  0  0  0  0  0  0  0
   11.5263   -3.8979    0.0000 H   0  0  0  0  0  0  0  0  0  0  0  0
   12.9657   -0.0595    0.0000 H   0  0  0  0  0  0  0  0  0  0  0  0
   10.0869   -0.0595    0.0000 H   0  0  0  0  0  0  0  0  0  0  0  0
    4.5981   -0.6579    0.0000 H   0  0  0  0  0  0  0  0  0  0  0  0
    6.0010   -3.0879    0.0000 H   0  0  0  0  0  0  0  0  0  0  0  0
   12.4244    3.9079    0.0000 H   0  0  0  0  0  0  0  0  0  0  0  0
    9.2384    1.4996    0.0000 H   0  0  0  0  0  0  0  0  0  0  0  0
   13.6222    4.5933    0.0000 H   0  0  0  0  0  0  0  0  0  0  0  0
   15.0157    2.1579    0.0000 H   0  0  0  0  0  0  0  0  0  0  0  0
   15.0282    5.3979    0.0000 H   0  0  0  0  0  0  0  0  0  0  0  0
   16.4218    2.9625    0.0000 H   0  0  0  0  0  0  0  0  0  0  0  0
   16.4281    4.5825    0.0000 H   0  0  0  0  0  0  0  0  0  0  0  0
    3.4220   -4.2410    0.0000 H   0  0  0  0  0  0  0  0  0  0  0  0
    3.1951   -5.0879    0.0000 H   0  0  0  0  0  0  0  0  0  0  0  0
    4.0420   -5.3148    0.0000 H   0  0  0  0  0  0  0  0  0  0  0  0
    3.4860   -0.2779    0.0000 H   0  0  0  0  0  0  0  0  0  0  0  0
    2.8660    0.3421    0.0000 H   0  0  0  0  0  0  0  0  0  0  0  0
    2.2460   -0.2779    0.0000 H   0  0  0  0  0  0  0  0  0  0  0  0
    2.3100   -2.2410    0.0000 H   0  0  0  0  0  0  0  0  0  0  0  0
    1.4631   -2.4679    0.0000 H   0  0  0  0  0  0  0  0  0  0  0  0
    1.6900   -3.3148    0.0000 H   0  0  0  0  0  0  0  0  0  0  0  0
  1 16  1  0  0  0  0
  1 18  1  0  0  0  0
 14  2  1  6  0  0  0
  2 52  1  0  0  0  0
 15  3  1  1  0  0  0
  3 53  1  0  0  0  0
 18  4  1  1  0  0  0
  4 20  1  0  0  0  0
 17  5  1  6  0  0  0
  5 54  1  0  0  0  0
  6 19  1  0  0  0  0
  6 23  1  0  0  0  0
  7 24  1  0  0  0  0
  7 29  1  0  0  0  0
  8 23  2  0  0  0  0
  9 26  1  0  0  0  0
  9 60  1  0  0  0  0
 10 28  2  0  0  0  0
 11 33  1  0  0  0  0
 11 42  1  0  0  0  0
 12 34  1  0  0  0  0
 12 43  1  0  0  0  0
 13 36  1  0  0  0  0
 13 44  1  0  0  0  0
 14 15  1  0  0  0  0
 14 16  1  0  0  0  0
 14 45  1  0  0  0  0
 15 17  1  0  0  0  0
 15 46  1  0  0  0  0
 16 19  1  1  0  0  0
 16 47  1  0  0  0  0
 17 18  1  0  0  0  0
 17 48  1  0  0  0  0
 18 49  1  0  0  0  0
 19 50  1  0  0  0  0
 19 51  1  0  0  0  0
 20 21  1  0  0  0  0
 20 22  2  0  0  0  0
 21 24  2  0  0  0  0
 21 55  1  0  0  0  0
 22 26  1  0  0  0  0
 22 56  1  0  0  0  0
 23 27  1  0  0  0  0
 24 25  1  0  0  0  0
 25 26  2  0  0  0  0
 25 28  1  0  0  0  0
 27 30  2  0  0  0  0
 27 31  1  0  0  0  0
 28 32  1  0  0  0  0
 29 32  2  0  0  0  0
 29 35  1  0  0  0  0
 30 34  1  0  0  0  0
 30 57  1  0  0  0  0
 31 33  2  0  0  0  0
 31 58  1  0  0  0  0
 32 59  1  0  0  0  0
 33 36  1  0  0  0  0
 34 36  2  0  0  0  0
 35 37  2  0  0  0  0
 35 38  1  0  0  0  0
 37 39  1  0  0  0  0
 37 61  1  0  0  0  0
 38 40  2  0  0  0  0
 38 62  1  0  0  0  0
 39 41  2  0  0  0  0
 39 63  1  0  0  0  0
 40 41  1  0  0  0  0
 40 64  1  0  0  0  0
 41 65  1  0  0  0  0
 42 66  1  0  0  0  0
 42 67  1  0  0  0  0
 42 68  1  0  0  0  0
 43 69  1  0  0  0  0
 43 70  1  0  0  0  0
 43 71  1  0  0  0  0
 44 72  1  0  0  0  0
 44 73  1  0  0  0  0
 44 74  1  0  0  0  0
M  END
> <PUBCHEM_COMPOUND_CID>
101006308

> <PUBCHEM_COMPOUND_CANONICALIZED>
1

> <PUBCHEM_CACTVS_COMPLEXITY>
1000

> <PUBCHEM_CACTVS_HBOND_ACCEPTOR>
13

> <PUBCHEM_CACTVS_HBOND_DONOR>
4

> <PUBCHEM_CACTVS_ROTATABLE_BOND>
10

> <PUBCHEM_CACTVS_SUBSKEYS>
AAADceB4PAAAAAAAAAAAAAAAAAAAAAAAAAA0YMECAAAAAACBUAAAGgAACAAADBSwmAMyDoAABgCIAqDSCAACCAAkIAAIiAEGiMgdNzaGNRqieWKl4BUPuYfK7LzOIAABCAAIQABAAAIQABCAAAAAAAAAAA==

> <PUBCHEM_IUPAC_OPENEYE_NAME>
[(2R,3S,4S,5R,6S)-3,4,5-trihydroxy-6-(5-hydroxy-4-oxo-2-phenyl-chromen-7-yl)oxy-tetrahydropyran-2-yl]methyl 3,4,5-trimethoxybenzoate

> <PUBCHEM_IUPAC_CAS_NAME>
3,4,5-trimethoxybenzoic acid [(2R,3S,4S,5R,6S)-3,4,5-trihydroxy-6-[(5-hydroxy-4-oxo-2-phenyl-1-benzopyran-7-yl)oxy]-2-oxanyl]methyl ester

> <PUBCHEM_IUPAC_NAME_MARKUP>
[(2<I>R</I>,3<I>S</I>,4<I>S</I>,5<I>R</I>,6<I>S</I>)-3,4,5-trihydroxy-6-(5-hydroxy-4-oxo-2-phenylchromen-7-yl)oxyoxan-2-yl]methyl 3,4,5-trimethoxybenzoate

> <PUBCHEM_IUPAC_NAME>
[(2R,3S,4S,5R,6S)-3,4,5-trihydroxy-6-(5-hydroxy-4-oxo-2-phenylchromen-7-yl)oxyoxan-2-yl]methyl 3,4,5-trimethoxybenzoate

> <PUBCHEM_IUPAC_SYSTEMATIC_NAME>
[(2R,3S,4S,5R,6S)-3,4,5-tris(oxidanyl)-6-(5-oxidanyl-4-oxidanylidene-2-phenyl-chromen-7-yl)oxy-oxan-2-yl]methyl 3,4,5-trimethoxybenzoate

> <PUBCHEM_IUPAC_TRADITIONAL_NAME>
3,4,5-trimethoxybenzoic acid [(2R,3S,4S,5R,6S)-3,4,5-trihydroxy-6-(5-hydroxy-4-keto-2-phenyl-chromen-7-yl)oxy-tetrahydropyran-2-yl]methyl ester

> <PUBCHEM_IUPAC_INCHI>
InChI=1S/C31H30O13/c1-38-22-9-16(10-23(39-2)29(22)40-3)30(37)41-14-24-26(34)27(35)28(36)31(44-24)42-17-11-18(32)25-19(33)13-20(43-21(25)12-17)15-7-5-4-6-8-15/h4-13,24,26-28,31-32,34-36H,14H2,1-3H3/t24-,26-,27+,28-,31-/m1/s1

> <PUBCHEM_IUPAC_INCHIKEY>
AMDOGVPGDZEDPB-APIIAOPOSA-N

> <PUBCHEM_XLOGP3_AA>
2.8

> <PUBCHEM_EXACT_MASS>
610.16864101

> <PUBCHEM_MOLECULAR_FORMULA>
C31H30O13

> <PUBCHEM_MOLECULAR_WEIGHT>
610.6

> <PUBCHEM_OPENEYE_CAN_SMILES>
COC1=CC(=CC(=C1OC)OC)C(=O)OCC2C(C(C(C(O2)OC3=CC(=C4C(=C3)OC(=CC4=O)C5=CC=CC=C5)O)O)O)O

> <PUBCHEM_OPENEYE_ISO_SMILES>
COC1=CC(=CC(=C1OC)OC)C(=O)OC[C@@H]2[C@H]([C@@H]([C@H]([C@@H](O2)OC3=CC(=C4C(=C3)OC(=CC4=O)C5=CC=CC=C5)O)O)O)O

> <PUBCHEM_CACTVS_TPSA>
180

> <PUBCHEM_MONOISOTOPIC_WEIGHT>
610.16864101

> <PUBCHEM_TOTAL_CHARGE>
0

> <PUBCHEM_HEAVY_ATOM_COUNT>
44

> <PUBCHEM_ATOM_DEF_STEREO_COUNT>
5

> <PUBCHEM_ATOM_UDEF_STEREO_COUNT>
0

> <PUBCHEM_BOND_DEF_STEREO_COUNT>
0

> <PUBCHEM_BOND_UDEF_STEREO_COUNT>
0

> <PUBCHEM_ISOTOPIC_ATOM_COUNT>
0

> <PUBCHEM_COMPONENT_COUNT>
1

> <PUBCHEM_CACTVS_TAUTO_COUNT>
-1

> <PUBCHEM_COORDINATE_TYPE>
1
5
255

> <PUBCHEM_BONDANNOTATIONS>
16  19  5
14  2  6
20  21  8
20  22  8
21  24  8
22  26  8
24  25  8
25  26  8
25  28  8
27  30  8
27  31  8
28  32  8
29  32  8
15  3  5
30  34  8
31  33  8
33  36  8
34  36  8
35  37  8
35  38  8
37  39  8
38  40  8
39  41  8
18  4  5
40  41  8
17  5  6
7  24  8
7  29  8

$$$$
