 
  -OEChem-10192104082D

 68 71  0     1  0  0  0  0  0999 V2000
    7.7331    4.5000    0.0000 O   0  0  0  0  0  0  0  0  0  0  0  0
    4.2690   -4.5000    0.0000 O   0  0  0  0  0  0  0  0  0  0  0  0
    9.4651    6.5000    0.0000 O   0  0  0  0  0  0  0  0  0  0  0  0
    2.5369   -6.5000    0.0000 O   0  0  0  0  0  0  0  0  0  0  0  0
    7.7331    7.5000    0.0000 O   0  0  0  0  0  0  0  0  0  0  0  0
    4.2690   -7.5000    0.0000 O   0  0  0  0  0  0  0  0  0  0  0  0
    6.0010    4.5000    0.0000 O   0  0  0  0  0  0  0  0  0  0  0  0
    6.0010   -4.5000    0.0000 O   0  0  0  0  0  0  0  0  0  0  0  0
    6.0010    6.5000    0.0000 O   0  0  0  0  0  0  0  0  0  0  0  0
    6.0010   -6.5000    0.0000 O   0  0  0  0  0  0  0  0  0  0  0  0
   10.3312    5.0000    0.0000 O   0  0  0  0  0  0  0  0  0  0  0  0
    2.5369   -3.5000    0.0000 O   0  0  0  0  0  0  0  0  0  0  0  0
    8.5991    6.0000    0.0000 C   0  0  1  0  0  0  0  0  0  0  0  0
    3.4030   -6.0000    0.0000 C   0  0  1  0  0  0  0  0  0  0  0  0
    7.7331    6.5000    0.0000 C   0  0  1  0  0  0  0  0  0  0  0  0
    4.2690   -6.5000    0.0000 C   0  0  1  0  0  0  0  0  0  0  0  0
    8.5991    5.0000    0.0000 C   0  0  1  0  0  0  0  0  0  0  0  0
    3.4030   -5.0000    0.0000 C   0  0  1  0  0  0  0  0  0  0  0  0
    6.8671    6.0000    0.0000 C   0  0  1  0  0  0  0  0  0  0  0  0
    5.1350   -6.0000    0.0000 C   0  0  1  0  0  0  0  0  0  0  0  0
    6.8671    5.0000    0.0000 C   0  0  2  0  0  0  0  0  0  0  0  0
    5.1350   -5.0000    0.0000 C   0  0  2  0  0  0  0  0  0  0  0  0
    9.4651    4.5000    0.0000 C   0  0  0  0  0  0  0  0  0  0  0  0
    2.5369   -4.5000    0.0000 C   0  0  0  0  0  0  0  0  0  0  0  0
    6.0010    3.5000    0.0000 C   0  0  0  0  0  0  0  0  0  0  0  0
    6.0010   -3.5000    0.0000 C   0  0  0  0  0  0  0  0  0  0  0  0
    6.8671    3.0000    0.0000 C   0  0  0  0  0  0  0  0  0  0  0  0
    6.8671   -3.0000    0.0000 C   0  0  0  0  0  0  0  0  0  0  0  0
    5.1350    3.0000    0.0000 C   0  0  0  0  0  0  0  0  0  0  0  0
    5.1350   -3.0000    0.0000 C   0  0  0  0  0  0  0  0  0  0  0  0
    6.8671    2.0000    0.0000 C   0  0  0  0  0  0  0  0  0  0  0  0
    6.8671   -2.0000    0.0000 C   0  0  0  0  0  0  0  0  0  0  0  0
    5.1350    2.0000    0.0000 C   0  0  0  0  0  0  0  0  0  0  0  0
    5.1350   -2.0000    0.0000 C   0  0  0  0  0  0  0  0  0  0  0  0
    6.0010    1.5000    0.0000 C   0  0  0  0  0  0  0  0  0  0  0  0
    6.0010   -1.5000    0.0000 C   0  0  0  0  0  0  0  0  0  0  0  0
    6.0010    0.5000    0.0000 C   0  0  0  0  0  0  0  0  0  0  0  0
    6.0010   -0.5000    0.0000 C   0  0  0  0  0  0  0  0  0  0  0  0
    8.5991    6.6200    0.0000 H   0  0  0  0  0  0  0  0  0  0  0  0
    3.4030   -6.6200    0.0000 H   0  0  0  0  0  0  0  0  0  0  0  0
    7.1962    6.8100    0.0000 H   0  0  0  0  0  0  0  0  0  0  0  0
    3.7320   -6.8100    0.0000 H   0  0  0  0  0  0  0  0  0  0  0  0
    8.5991    4.3800    0.0000 H   0  0  0  0  0  0  0  0  0  0  0  0
    3.4030   -4.3800    0.0000 H   0  0  0  0  0  0  0  0  0  0  0  0
    6.8671    6.6200    0.0000 H   0  0  0  0  0  0  0  0  0  0  0  0
    5.1350   -6.6200    0.0000 H   0  0  0  0  0  0  0  0  0  0  0  0
    6.8671    4.3800    0.0000 H   0  0  0  0  0  0  0  0  0  0  0  0
    5.1350   -4.3800    0.0000 H   0  0  0  0  0  0  0  0  0  0  0  0
    9.0666    4.0250    0.0000 H   0  0  0  0  0  0  0  0  0  0  0  0
    9.8637    4.0250    0.0000 H   0  0  0  0  0  0  0  0  0  0  0  0
    1.9264   -4.3923    0.0000 H   0  0  0  0  0  0  0  0  0  0  0  0
    2.3249   -5.0826    0.0000 H   0  0  0  0  0  0  0  0  0  0  0  0
    9.4651    7.1200    0.0000 H   0  0  0  0  0  0  0  0  0  0  0  0
    2.0000   -6.1900    0.0000 H   0  0  0  0  0  0  0  0  0  0  0  0
    8.2700    7.8100    0.0000 H   0  0  0  0  0  0  0  0  0  0  0  0
    3.7320   -7.8100    0.0000 H   0  0  0  0  0  0  0  0  0  0  0  0
    5.4641    6.1900    0.0000 H   0  0  0  0  0  0  0  0  0  0  0  0
    6.5380   -6.1900    0.0000 H   0  0  0  0  0  0  0  0  0  0  0  0
   10.8681    4.6900    0.0000 H   0  0  0  0  0  0  0  0  0  0  0  0
    2.0000   -3.1900    0.0000 H   0  0  0  0  0  0  0  0  0  0  0  0
    7.4040    3.3100    0.0000 H   0  0  0  0  0  0  0  0  0  0  0  0
    7.4040   -3.3100    0.0000 H   0  0  0  0  0  0  0  0  0  0  0  0
    4.5981    3.3100    0.0000 H   0  0  0  0  0  0  0  0  0  0  0  0
    4.5981   -3.3100    0.0000 H   0  0  0  0  0  0  0  0  0  0  0  0
    7.4040    1.6900    0.0000 H   0  0  0  0  0  0  0  0  0  0  0  0
    7.4040   -1.6900    0.0000 H   0  0  0  0  0  0  0  0  0  0  0  0
    4.5981    1.6900    0.0000 H   0  0  0  0  0  0  0  0  0  0  0  0
    4.5981   -1.6900    0.0000 H   0  0  0  0  0  0  0  0  0  0  0  0
  1 17  1  0  0  0  0
  1 21  1  0  0  0  0
  2 18  1  0  0  0  0
  2 22  1  0  0  0  0
 13  3  1  6  0  0  0
  3 53  1  0  0  0  0
 14  4  1  6  0  0  0
  4 54  1  0  0  0  0
 15  5  1  1  0  0  0
  5 55  1  0  0  0  0
 16  6  1  1  0  0  0
  6 56  1  0  0  0  0
 21  7  1  6  0  0  0
  7 25  1  0  0  0  0
 22  8  1  6  0  0  0
  8 26  1  0  0  0  0
 19  9  1  1  0  0  0
  9 57  1  0  0  0  0
 20 10  1  1  0  0  0
 10 58  1  0  0  0  0
 11 23  1  0  0  0  0
 11 59  1  0  0  0  0
 12 24  1  0  0  0  0
 12 60  1  0  0  0  0
 13 15  1  0  0  0  0
 13 17  1  0  0  0  0
 13 39  1  0  0  0  0
 14 16  1  0  0  0  0
 14 18  1  0  0  0  0
 14 40  1  0  0  0  0
 15 19  1  0  0  0  0
 15 41  1  0  0  0  0
 16 20  1  0  0  0  0
 16 42  1  0  0  0  0
 17 23  1  1  0  0  0
 17 43  1  0  0  0  0
 18 24  1  1  0  0  0
 18 44  1  0  0  0  0
 19 21  1  0  0  0  0
 19 45  1  0  0  0  0
 20 22  1  0  0  0  0
 20 46  1  0  0  0  0
 21 47  1  0  0  0  0
 22 48  1  0  0  0  0
 23 49  1  0  0  0  0
 23 50  1  0  0  0  0
 24 51  1  0  0  0  0
 24 52  1  0  0  0  0
 25 27  2  0  0  0  0
 25 29  1  0  0  0  0
 26 28  2  0  0  0  0
 26 30  1  0  0  0  0
 27 31  1  0  0  0  0
 27 61  1  0  0  0  0
 28 32  1  0  0  0  0
 28 62  1  0  0  0  0
 29 33  2  0  0  0  0
 29 63  1  0  0  0  0
 30 34  2  0  0  0  0
 30 64  1  0  0  0  0
 31 35  2  0  0  0  0
 31 65  1  0  0  0  0
 32 36  2  0  0  0  0
 32 66  1  0  0  0  0
 33 35  1  0  0  0  0
 33 67  1  0  0  0  0
 34 36  1  0  0  0  0
 34 68  1  0  0  0  0
 35 37  1  0  0  0  0
 36 38  1  0  0  0  0
 37 38  3  0  0  0  0
M  END
> <PUBCHEM_COMPOUND_CID>
101956756

> <PUBCHEM_COMPOUND_CANONICALIZED>
1

> <PUBCHEM_CACTVS_COMPLEXITY>
737

> <PUBCHEM_CACTVS_HBOND_ACCEPTOR>
12

> <PUBCHEM_CACTVS_HBOND_DONOR>
8

> <PUBCHEM_CACTVS_ROTATABLE_BOND>
8

> <PUBCHEM_CACTVS_SUBSKEYS>
AAADceB4PAAAAAAAAAAAAAAAAAAAAAAAAAA0aIEAAAAAAAABQAAAGgAACAAADBSwmAMwDoAABgDAEiBCAAgCCAAgIAAIiAAGCIgdNiKEMRqieCClwBEPqAfA4AwOIAAAAAAAAABAAAAAAAAAAAAAAAAAAA==

> <PUBCHEM_IUPAC_OPENEYE_NAME>
(2R,3S,4S,5S,6R)-2-(hydroxymethyl)-6-[4-[2-[4-[(2R,3S,4S,5S,6R)-3,4,5-trihydroxy-6-(hydroxymethyl)tetrahydropyran-2-yl]oxyphenyl]ethynyl]phenoxy]tetrahydropyran-3,4,5-triol

> <PUBCHEM_IUPAC_CAS_NAME>
(2R,3S,4S,5S,6R)-2-(hydroxymethyl)-6-[4-[2-[4-[[(2R,3S,4S,5S,6R)-3,4,5-trihydroxy-6-(hydroxymethyl)-2-oxanyl]oxy]phenyl]ethynyl]phenoxy]oxane-3,4,5-triol

> <PUBCHEM_IUPAC_NAME_MARKUP>
(2<I>R</I>,3<I>S</I>,4<I>S</I>,5<I>S</I>,6<I>R</I>)-2-(hydroxymethyl)-6-[4-[2-[4-[(2<I>R</I>,3<I>S</I>,4<I>S</I>,5<I>S</I>,6<I>R</I>)-3,4,5-trihydroxy-6-(hydroxymethyl)oxan-2-yl]oxyphenyl]ethynyl]phenoxy]oxane-3,4,5-triol

> <PUBCHEM_IUPAC_NAME>
(2R,3S,4S,5S,6R)-2-(hydroxymethyl)-6-[4-[2-[4-[(2R,3S,4S,5S,6R)-3,4,5-trihydroxy-6-(hydroxymethyl)oxan-2-yl]oxyphenyl]ethynyl]phenoxy]oxane-3,4,5-triol

> <PUBCHEM_IUPAC_SYSTEMATIC_NAME>
(2R,3S,4S,5S,6R)-2-(hydroxymethyl)-6-[4-[2-[4-[(2R,3S,4S,5S,6R)-6-(hydroxymethyl)-3,4,5-tris(oxidanyl)oxan-2-yl]oxyphenyl]ethynyl]phenoxy]oxane-3,4,5-triol

> <PUBCHEM_IUPAC_TRADITIONAL_NAME>
(2R,3S,4S,5S,6R)-2-methylol-6-[4-[2-[4-[(2R,3S,4S,5S,6R)-3,4,5-trihydroxy-6-methylol-tetrahydropyran-2-yl]oxyphenyl]ethynyl]phenoxy]tetrahydropyran-3,4,5-triol

> <PUBCHEM_IUPAC_INCHI>
InChI=1S/C26H30O12/c27-11-17-19(29)21(31)23(33)25(37-17)35-15-7-3-13(4-8-15)1-2-14-5-9-16(10-6-14)36-26-24(34)22(32)20(30)18(12-28)38-26/h3-10,17-34H,11-12H2/t17-,18-,19-,20-,21+,22+,23+,24+,25+,26+/m1/s1

> <PUBCHEM_IUPAC_INCHIKEY>
PGJMPCJPFWURPF-YFCXUONISA-N

> <PUBCHEM_XLOGP3>
0

> <PUBCHEM_EXACT_MASS>
534.17372639

> <PUBCHEM_MOLECULAR_FORMULA>
C26H30O12

> <PUBCHEM_MOLECULAR_WEIGHT>
534.5

> <PUBCHEM_OPENEYE_CAN_SMILES>
C1=CC(=CC=C1C#CC2=CC=C(C=C2)OC3C(C(C(C(O3)CO)O)O)O)OC4C(C(C(C(O4)CO)O)O)O

> <PUBCHEM_OPENEYE_ISO_SMILES>
C1=CC(=CC=C1C#CC2=CC=C(C=C2)O[C@@H]3[C@H]([C@H]([C@@H]([C@H](O3)CO)O)O)O)O[C@@H]4[C@H]([C@H]([C@@H]([C@H](O4)CO)O)O)O

> <PUBCHEM_CACTVS_TPSA>
199

> <PUBCHEM_MONOISOTOPIC_WEIGHT>
534.17372639

> <PUBCHEM_TOTAL_CHARGE>
0

> <PUBCHEM_HEAVY_ATOM_COUNT>
38

> <PUBCHEM_ATOM_DEF_STEREO_COUNT>
10

> <PUBCHEM_ATOM_UDEF_STEREO_COUNT>
0

> <PUBCHEM_BOND_DEF_STEREO_COUNT>
0

> <PUBCHEM_BOND_UDEF_STEREO_COUNT>
0

> <PUBCHEM_ISOTOPIC_ATOM_COUNT>
0

> <PUBCHEM_COMPONENT_COUNT>
1

> <PUBCHEM_CACTVS_TAUTO_COUNT>
-1

> <PUBCHEM_COORDINATE_TYPE>
1
5
255

> <PUBCHEM_BONDANNOTATIONS>
20  10  5
17  23  5
18  24  5
25  27  8
25  29  8
26  28  8
26  30  8
27  31  8
28  32  8
29  33  8
13  3  6
30  34  8
31  35  8
32  36  8
33  35  8
34  36  8
14  4  6
15  5  5
16  6  5
21  7  6
22  8  6
19  9  5

$$$$
