 
  -OEChem-10192103422D

 48 49  0     1  0  0  0  0  0999 V2000
    6.8909   -2.6767    0.0000 P   0  0  3  0  0  0  0  0  0  0  0  0
    8.4732   -3.3812    0.0000 P   0  0  3  0  0  0  0  0  0  0  0  0
    5.0298   -0.2121    0.0000 O   0  0  0  0  0  0  0  0  0  0  0  0
    3.1330   -1.9722    0.0000 O   0  0  0  0  0  0  0  0  0  0  0  0
    6.3031   -1.8676    0.0000 O   0  0  0  0  0  0  0  0  0  0  0  0
    2.4608    0.0969    0.0000 O   0  0  0  0  0  0  0  0  0  0  0  0
    6.0819   -3.2644    0.0000 O   0  0  0  0  0  0  0  0  0  0  0  0
    5.9529    1.3757    0.0000 O   0  0  0  0  0  0  0  0  0  0  0  0
    9.4677   -3.2766    0.0000 O   0  0  0  0  0  0  0  0  0  0  0  0
    8.3687   -2.3866    0.0000 O   0  0  0  0  0  0  0  0  0  0  0  0
    4.2208    4.3757    0.0000 O   0  0  0  0  0  0  0  0  0  0  0  0
    4.2208    1.3757    0.0000 N   0  0  0  0  0  0  0  0  0  0  0  0
    5.0868    2.8757    0.0000 N   0  0  0  0  0  0  0  0  0  0  0  0
    4.7208   -1.1632    0.0000 C   0  0  1  0  0  0  0  0  0  0  0  0
    3.7208   -1.1632    0.0000 C   0  0  3  0  0  0  0  0  0  0  0  0
    3.4118   -0.2121    0.0000 C   0  0  3  0  0  0  0  0  0  0  0  0
    4.2208    0.3757    0.0000 C   0  0  1  0  0  0  0  0  0  0  0  0
    5.3086   -1.9722    0.0000 C   0  0  0  0  0  0  0  0  0  0  0  0
    7.4787   -3.4857    0.0000 C   0  0  0  0  0  0  0  0  0  0  0  0
    3.3548    1.8757    0.0000 C   0  0  0  0  0  0  0  0  0  0  0  0
    5.0868    1.8757    0.0000 C   0  0  0  0  0  0  0  0  0  0  0  0
    7.6999   -2.0889    0.0000 C   0  0  0  0  0  0  0  0  0  0  0  0
    3.3548    2.8757    0.0000 C   0  0  0  0  0  0  0  0  0  0  0  0
    4.2208    3.3757    0.0000 C   0  0  0  0  0  0  0  0  0  0  0  0
    8.5778   -4.3757    0.0000 C   0  0  0  0  0  0  0  0  0  0  0  0
    2.4888    3.3757    0.0000 C   0  0  0  0  0  0  0  0  0  0  0  0
    5.3332   -1.0662    0.0000 H   0  0  0  0  0  0  0  0  0  0  0  0
    3.1085   -1.0662    0.0000 H   0  0  0  0  0  0  0  0  0  0  0  0
    2.9734   -0.6505    0.0000 H   0  0  0  0  0  0  0  0  0  0  0  0
    3.6684    0.6572    0.0000 H   0  0  0  0  0  0  0  0  0  0  0  0
    4.7514   -2.2440    0.0000 H   0  0  0  0  0  0  0  0  0  0  0  0
    5.4795   -2.5682    0.0000 H   0  0  0  0  0  0  0  0  0  0  0  0
    3.3852   -2.5386    0.0000 H   0  0  0  0  0  0  0  0  0  0  0  0
    2.0000   -0.3180    0.0000 H   0  0  0  0  0  0  0  0  0  0  0  0
    6.9214   -3.7575    0.0000 H   0  0  0  0  0  0  0  0  0  0  0  0
    7.6496   -4.0817    0.0000 H   0  0  0  0  0  0  0  0  0  0  0  0
    2.8179    1.5657    0.0000 H   0  0  0  0  0  0  0  0  0  0  0  0
    8.0644   -2.5905    0.0000 H   0  0  0  0  0  0  0  0  0  0  0  0
    8.2015   -1.7245    0.0000 H   0  0  0  0  0  0  0  0  0  0  0  0
    7.3355   -1.5873    0.0000 H   0  0  0  0  0  0  0  0  0  0  0  0
    5.6238    3.1857    0.0000 H   0  0  0  0  0  0  0  0  0  0  0  0
    7.9612   -4.4405    0.0000 H   0  0  0  0  0  0  0  0  0  0  0  0
    8.6426   -4.9923    0.0000 H   0  0  0  0  0  0  0  0  0  0  0  0
    9.1944   -4.3109    0.0000 H   0  0  0  0  0  0  0  0  0  0  0  0
    2.7988    3.9126    0.0000 H   0  0  0  0  0  0  0  0  0  0  0  0
    1.9518    3.6857    0.0000 H   0  0  0  0  0  0  0  0  0  0  0  0
    2.1788    2.8387    0.0000 H   0  0  0  0  0  0  0  0  0  0  0  0
    9.8322   -3.7782    0.0000 H   0  0  0  0  0  0  0  0  0  0  0  0
  1  5  1  0  0  0  0
  1  7  2  0  0  0  0
  1 19  1  0  0  0  0
  1 22  1  0  0  0  0
  2  9  1  0  0  0  0
  2 10  2  0  0  0  0
  2 19  1  0  0  0  0
  2 25  1  0  0  0  0
  3 14  1  0  0  0  0
  3 17  1  0  0  0  0
  4 15  1  0  0  0  0
  4 33  1  0  0  0  0
  5 18  1  0  0  0  0
  6 16  1  0  0  0  0
  6 34  1  0  0  0  0
  8 21  2  0  0  0  0
  9 48  1  0  0  0  0
 11 24  2  0  0  0  0
 17 12  1  6  0  0  0
 12 20  1  0  0  0  0
 12 21  1  0  0  0  0
 13 21  1  0  0  0  0
 13 24  1  0  0  0  0
 13 41  1  0  0  0  0
 14 15  1  0  0  0  0
 14 18  1  6  0  0  0
 14 27  1  0  0  0  0
 15 16  1  0  0  0  0
 15 28  1  0  0  0  0
 16 17  1  0  0  0  0
 16 29  1  0  0  0  0
 17 30  1  0  0  0  0
 18 31  1  0  0  0  0
 18 32  1  0  0  0  0
 19 35  1  0  0  0  0
 19 36  1  0  0  0  0
 20 23  2  0  0  0  0
 20 37  1  0  0  0  0
 22 38  1  0  0  0  0
 22 39  1  0  0  0  0
 22 40  1  0  0  0  0
 23 24  1  0  0  0  0
 23 26  1  0  0  0  0
 25 42  1  0  0  0  0
 25 43  1  0  0  0  0
 25 44  1  0  0  0  0
 26 45  1  0  0  0  0
 26 46  1  0  0  0  0
 26 47  1  0  0  0  0
M  END
> <PUBCHEM_COMPOUND_CID>
59976839

> <PUBCHEM_COMPOUND_CANONICALIZED>
1

> <PUBCHEM_CACTVS_COMPLEXITY>
724

> <PUBCHEM_CACTVS_HBOND_ACCEPTOR>
9

> <PUBCHEM_CACTVS_HBOND_DONOR>
4

> <PUBCHEM_CACTVS_ROTATABLE_BOND>
6

> <PUBCHEM_CACTVS_SUBSKEYS>
AAADceBzPAMAAAAAAAAAAAAAAAAAASAAAAAgAAAAAAAAAAAAAAAAHggQCCAADBThgAYDAAPABzCIQgFWUICAAAAAAAAAAAEIAECDEAIAgQAOQAAPByITAMDwMAIAAAAAAAAAAAAAAAAAAAAAAAAAAAAAAA==

> <PUBCHEM_IUPAC_OPENEYE_NAME>
[[(2R,5R)-3,4-dihydroxy-5-(5-methyl-2,4-dioxo-pyrimidin-1-yl)tetrahydrofuran-2-yl]methoxy-methyl-phosphoryl]methyl-methyl-phosphinic acid

> <PUBCHEM_IUPAC_CAS_NAME>
[[(2R,5R)-3,4-dihydroxy-5-(5-methyl-2,4-dioxo-1-pyrimidinyl)-2-oxolanyl]methoxy-methylphosphoryl]methyl-methylphosphinic acid

> <PUBCHEM_IUPAC_NAME_MARKUP>
[[(2<I>R</I>,5<I>R</I>)-3,4-dihydroxy-5-(5-methyl-2,4-dioxopyrimidin-1-yl)oxolan-2-yl]methoxy-methylphosphoryl]methyl-methylphosphinic acid

> <PUBCHEM_IUPAC_NAME>
[[(2R,5R)-3,4-dihydroxy-5-(5-methyl-2,4-dioxopyrimidin-1-yl)oxolan-2-yl]methoxy-methylphosphoryl]methyl-methylphosphinic acid

> <PUBCHEM_IUPAC_SYSTEMATIC_NAME>
methyl-[[methyl-[[(2R,5R)-5-[5-methyl-2,4-bis(oxidanylidene)pyrimidin-1-yl]-3,4-bis(oxidanyl)oxolan-2-yl]methoxy]phosphoryl]methyl]phosphinic acid

> <PUBCHEM_IUPAC_TRADITIONAL_NAME>
[[(2R,5R)-5-(2,4-diketo-5-methyl-pyrimidin-1-yl)-3,4-dihydroxy-tetrahydrofuran-2-yl]methoxy-methyl-phosphoryl]methyl-methyl-phosphinic acid

> <PUBCHEM_IUPAC_INCHI>
InChI=1S/C13H22N2O9P2/c1-7-4-15(13(19)14-11(7)18)12-10(17)9(16)8(24-12)5-23-26(3,22)6-25(2,20)21/h4,8-10,12,16-17H,5-6H2,1-3H3,(H,20,21)(H,14,18,19)/t8-,9?,10?,12-,26?/m1/s1

> <PUBCHEM_IUPAC_INCHIKEY>
LTINZTITQSZUEB-VRYNMYCWSA-N

> <PUBCHEM_XLOGP3_AA>
-3.8

> <PUBCHEM_EXACT_MASS>
412.08005428

> <PUBCHEM_MOLECULAR_FORMULA>
C13H22N2O9P2

> <PUBCHEM_MOLECULAR_WEIGHT>
412.27

> <PUBCHEM_OPENEYE_CAN_SMILES>
CC1=CN(C(=O)NC1=O)C2C(C(C(O2)COP(=O)(C)CP(=O)(C)O)O)O

> <PUBCHEM_OPENEYE_ISO_SMILES>
CC1=CN(C(=O)NC1=O)[C@H]2C(C([C@H](O2)COP(=O)(C)CP(=O)(C)O)O)O

> <PUBCHEM_CACTVS_TPSA>
163

> <PUBCHEM_MONOISOTOPIC_WEIGHT>
412.08005428

> <PUBCHEM_TOTAL_CHARGE>
0

> <PUBCHEM_HEAVY_ATOM_COUNT>
26

> <PUBCHEM_ATOM_DEF_STEREO_COUNT>
2

> <PUBCHEM_ATOM_UDEF_STEREO_COUNT>
3

> <PUBCHEM_BOND_DEF_STEREO_COUNT>
0

> <PUBCHEM_BOND_UDEF_STEREO_COUNT>
0

> <PUBCHEM_ISOTOPIC_ATOM_COUNT>
0

> <PUBCHEM_COMPONENT_COUNT>
1

> <PUBCHEM_CACTVS_TAUTO_COUNT>
-1

> <PUBCHEM_COORDINATE_TYPE>
1
5
255

> <PUBCHEM_BONDANNOTATIONS>
1  22  3
17  12  6
12  20  8
12  21  8
13  21  8
13  24  8
14  18  6
20  23  8
23  24  8
15  4  3
16  6  3

$$$$
