 
  -OEChem-10192103472D

 22 23  0     1  0  0  0  0  0999 V2000
    3.8978    0.2975    0.0000 O   0  0  0  0  0  0  0  0  0  0  0  0
    5.7951   -1.3162    0.0000 O   0  0  0  0  0  0  0  0  0  0  0  0
    3.5888   -2.2716    0.0000 O   0  0  0  0  0  0  0  0  0  0  0  0
    6.1057    1.2438    0.0000 O   0  0  0  0  0  0  0  0  0  0  0  0
    2.3100   -0.5115    0.0000 O   0  0  0  0  0  0  0  0  0  0  0  0
    7.3787   -0.5115    0.0000 O   0  0  0  0  0  0  0  0  0  0  0  0
    7.3949    2.4005    0.0000 O   0  0  0  0  0  0  0  0  0  0  0  0
    4.8488   -1.0115    0.0000 C   0  0  3  0  0  0  0  0  0  0  0  0
    4.8488   -0.0115    0.0000 C   0  0  3  0  0  0  0  0  0  0  0  0
    3.8978   -1.3205    0.0000 C   0  0  3  0  0  0  0  0  0  0  0  0
    5.7951    0.2932    0.0000 C   0  0  3  0  0  0  0  0  0  0  0  0
    3.3100   -0.5115    0.0000 C   0  0  3  0  0  0  0  0  0  0  0  0
    6.3787   -0.5115    0.0000 C   0  0  0  0  0  0  0  0  0  0  0  0
    7.0842    1.4500    0.0000 C   0  0  0  0  0  0  0  0  0  0  0  0
    4.8496   -1.6315    0.0000 H   0  0  0  0  0  0  0  0  0  0  0  0
    4.8496    0.6085    0.0000 H   0  0  0  0  0  0  0  0  0  0  0  0
    3.2854   -1.4175    0.0000 H   0  0  0  0  0  0  0  0  0  0  0  0
    6.4075    0.3894    0.0000 H   0  0  0  0  0  0  0  0  0  0  0  0
    3.0285    0.0409    0.0000 H   0  0  0  0  0  0  0  0  0  0  0  0
    2.9823   -2.4005    0.0000 H   0  0  0  0  0  0  0  0  0  0  0  0
    2.0000    0.0254    0.0000 H   0  0  0  0  0  0  0  0  0  0  0  0
    7.4983    0.9885    0.0000 H   0  0  0  0  0  0  0  0  0  0  0  0
  1  9  1  0  0  0  0
  1 12  1  0  0  0  0
  2  8  1  0  0  0  0
  2 13  1  0  0  0  0
  3 10  1  0  0  0  0
  3 20  1  0  0  0  0
  4 11  1  0  0  0  0
  4 14  1  0  0  0  0
  5 12  1  0  0  0  0
  5 21  1  0  0  0  0
  6 13  2  0  0  0  0
  7 14  2  0  0  0  0
  8  9  1  0  0  0  0
  8 10  1  0  0  0  0
  8 15  1  0  0  0  0
  9 11  1  0  0  0  0
  9 16  1  0  0  0  0
 10 12  1  0  0  0  0
 10 17  1  0  0  0  0
 11 13  1  0  0  0  0
 11 18  1  0  0  0  0
 12 19  1  0  0  0  0
 14 22  1  0  0  0  0
M  END
> <PUBCHEM_COMPOUND_CID>
89277220

> <PUBCHEM_COMPOUND_CANONICALIZED>
1

> <PUBCHEM_CACTVS_COMPLEXITY>
265

> <PUBCHEM_CACTVS_HBOND_ACCEPTOR>
7

> <PUBCHEM_CACTVS_HBOND_DONOR>
2

> <PUBCHEM_CACTVS_ROTATABLE_BOND>
2

> <PUBCHEM_CACTVS_SUBSKEYS>
AAADccBgOAAAAAAAAAAAAAAAAAAAASJAAAAAAAAAAAASAAAAAAAAGgAACAAACBSwgAMACAAABgAIAACQiAIAAAAAAAAAAAFAAAAREBYAAAQCQAAFIAAHAAHKbAxAAAAAAAAAAAAAAAAAAAAAAAAAAAAAAA==

> <PUBCHEM_IUPAC_OPENEYE_NAME>
(2,3-dihydroxy-5-oxo-3,3a,6,6a-tetrahydro-2H-furo[3,2-b]furan-6-yl) formate

> <PUBCHEM_IUPAC_CAS_NAME>
formic acid (2,3-dihydroxy-5-oxo-3,3a,6,6a-tetrahydro-2H-furo[3,2-b]furan-6-yl) ester

> <PUBCHEM_IUPAC_NAME_MARKUP>
(2,3-dihydroxy-5-oxo-3,3<I>a</I>,6,6<I>a</I>-tetrahydro-2<I>H</I>-furo[3,2-b]furan-6-yl) formate

> <PUBCHEM_IUPAC_NAME>
(2,3-dihydroxy-5-oxo-3,3a,6,6a-tetrahydro-2H-furo[3,2-b]furan-6-yl) formate

> <PUBCHEM_IUPAC_SYSTEMATIC_NAME>
[2,3-bis(oxidanyl)-5-oxidanylidene-3,3a,6,6a-tetrahydro-2H-furo[3,2-b]furan-6-yl] methanoate

> <PUBCHEM_IUPAC_TRADITIONAL_NAME>
formic acid (2,3-dihydroxy-5-keto-3,3a,6,6a-tetrahydro-2H-furo[3,2-b]furan-6-yl) ester

> <PUBCHEM_IUPAC_INCHI>
InChI=1S/C7H8O7/c8-1-12-5-4-3(13-7(5)11)2(9)6(10)14-4/h1-6,9-10H

> <PUBCHEM_IUPAC_INCHIKEY>
GILZFRXTICGODO-UHFFFAOYSA-N

> <PUBCHEM_XLOGP3_AA>
-1.5

> <PUBCHEM_EXACT_MASS>
204.02700259

> <PUBCHEM_MOLECULAR_FORMULA>
C7H8O7

> <PUBCHEM_MOLECULAR_WEIGHT>
204.13

> <PUBCHEM_OPENEYE_CAN_SMILES>
C(=O)OC1C2C(C(C(O2)O)O)OC1=O

> <PUBCHEM_OPENEYE_ISO_SMILES>
C(=O)OC1C2C(C(C(O2)O)O)OC1=O

> <PUBCHEM_CACTVS_TPSA>
102

> <PUBCHEM_MONOISOTOPIC_WEIGHT>
204.02700259

> <PUBCHEM_TOTAL_CHARGE>
0

> <PUBCHEM_HEAVY_ATOM_COUNT>
14

> <PUBCHEM_ATOM_DEF_STEREO_COUNT>
0

> <PUBCHEM_ATOM_UDEF_STEREO_COUNT>
5

> <PUBCHEM_BOND_DEF_STEREO_COUNT>
0

> <PUBCHEM_BOND_UDEF_STEREO_COUNT>
0

> <PUBCHEM_ISOTOPIC_ATOM_COUNT>
0

> <PUBCHEM_COMPONENT_COUNT>
1

> <PUBCHEM_CACTVS_TAUTO_COUNT>
-1

> <PUBCHEM_COORDINATE_TYPE>
1
5
255

> <PUBCHEM_BONDANNOTATIONS>
9  1  3
8  2  3
10  3  3
11  4  3
12  5  3

$$$$
