 
  -OEChem-10192103582D

 63 65  0     1  0  0  0  0  0999 V2000
   10.2942    0.0595    0.0000 O   0  0  0  0  0  0  0  0  0  0  0  0
    8.0622   -2.8065    0.0000 O   0  0  0  0  0  0  0  0  0  0  0  0
   11.5263   -2.8065    0.0000 O   0  0  0  0  0  0  0  0  0  0  0  0
    8.2942    0.0595    0.0000 O   0  0  0  0  0  0  0  0  0  0  0  0
    9.7942    0.9255    0.0000 O   0  0  0  0  0  0  0  0  0  0  0  0
   11.7942   -0.8065    0.0000 O   0  0  0  0  0  0  0  0  0  0  0  0
    7.1962   -1.3065    0.0000 O   0  0  0  0  0  0  0  0  0  0  0  0
   15.7942    2.6576    0.0000 O   0  0  0  0  0  0  0  0  0  0  0  0
    2.0000   -2.3065    0.0000 O   0  0  0  0  0  0  0  0  0  0  0  0
   14.7942    4.3896    0.0000 O   0  0  0  0  0  0  0  0  0  0  0  0
    2.0000   -4.3065    0.0000 O   0  0  0  0  0  0  0  0  0  0  0  0
    9.7942   -2.8065    0.0000 C   0  0  3  0  0  0  0  0  0  0  0  0
    9.7942   -0.8065    0.0000 C   0  0  3  0  0  0  0  0  0  0  0  0
    8.9282   -2.3065    0.0000 C   0  0  3  0  0  0  0  0  0  0  0  0
   10.6603   -2.3065    0.0000 C   0  0  3  0  0  0  0  0  0  0  0  0
    8.9282   -1.3065    0.0000 C   0  0  0  0  0  0  0  0  0  0  0  0
   10.6603   -1.3065    0.0000 C   0  0  0  0  0  0  0  0  0  0  0  0
    9.7942   -3.8065    0.0000 C   0  0  0  0  0  0  0  0  0  0  0  0
    9.2942    0.0595    0.0000 C   0  0  0  0  0  0  0  0  0  0  0  0
   11.2942    0.0595    0.0000 C   0  0  0  0  0  0  0  0  0  0  0  0
    7.1962   -2.3065    0.0000 C   0  0  0  0  0  0  0  0  0  0  0  0
   11.7942    0.9255    0.0000 C   0  0  0  0  0  0  0  0  0  0  0  0
    6.3301   -2.8065    0.0000 C   0  0  0  0  0  0  0  0  0  0  0  0
   12.7942    0.9255    0.0000 C   0  0  0  0  0  0  0  0  0  0  0  0
    5.4641   -2.3065    0.0000 C   0  0  0  0  0  0  0  0  0  0  0  0
   13.2942    1.7915    0.0000 C   0  0  0  0  0  0  0  0  0  0  0  0
    4.5981   -2.8065    0.0000 C   0  0  0  0  0  0  0  0  0  0  0  0
   14.2942    1.7915    0.0000 C   0  0  0  0  0  0  0  0  0  0  0  0
   12.7942    2.6576    0.0000 C   0  0  0  0  0  0  0  0  0  0  0  0
    3.7320   -2.3065    0.0000 C   0  0  0  0  0  0  0  0  0  0  0  0
    4.5981   -3.8065    0.0000 C   0  0  0  0  0  0  0  0  0  0  0  0
   14.7942    2.6576    0.0000 C   0  0  0  0  0  0  0  0  0  0  0  0
    2.8660   -2.8065    0.0000 C   0  0  0  0  0  0  0  0  0  0  0  0
   13.2942    3.5236    0.0000 C   0  0  0  0  0  0  0  0  0  0  0  0
    3.7320   -4.3065    0.0000 C   0  0  0  0  0  0  0  0  0  0  0  0
   14.2942    3.5236    0.0000 C   0  0  0  0  0  0  0  0  0  0  0  0
    2.8660   -3.8065    0.0000 C   0  0  0  0  0  0  0  0  0  0  0  0
   10.3312   -3.1165    0.0000 H   0  0  0  0  0  0  0  0  0  0  0  0
    8.9282   -2.9265    0.0000 H   0  0  0  0  0  0  0  0  0  0  0  0
   11.1972   -1.9965    0.0000 H   0  0  0  0  0  0  0  0  0  0  0  0
    8.7162   -0.7239    0.0000 H   0  0  0  0  0  0  0  0  0  0  0  0
    8.3176   -1.4142    0.0000 H   0  0  0  0  0  0  0  0  0  0  0  0
   11.2708   -1.4142    0.0000 H   0  0  0  0  0  0  0  0  0  0  0  0
   10.8723   -0.7239    0.0000 H   0  0  0  0  0  0  0  0  0  0  0  0
    9.1742   -3.8065    0.0000 H   0  0  0  0  0  0  0  0  0  0  0  0
    9.7942   -4.4265    0.0000 H   0  0  0  0  0  0  0  0  0  0  0  0
   10.4142   -3.8065    0.0000 H   0  0  0  0  0  0  0  0  0  0  0  0
   12.0632   -2.4965    0.0000 H   0  0  0  0  0  0  0  0  0  0  0  0
    7.9842    0.5964    0.0000 H   0  0  0  0  0  0  0  0  0  0  0  0
   11.4842    1.4624    0.0000 H   0  0  0  0  0  0  0  0  0  0  0  0
    6.3301   -3.4265    0.0000 H   0  0  0  0  0  0  0  0  0  0  0  0
   13.1042    0.3886    0.0000 H   0  0  0  0  0  0  0  0  0  0  0  0
    5.4641   -1.6865    0.0000 H   0  0  0  0  0  0  0  0  0  0  0  0
   14.6042    1.2546    0.0000 H   0  0  0  0  0  0  0  0  0  0  0  0
   12.1742    2.6576    0.0000 H   0  0  0  0  0  0  0  0  0  0  0  0
    3.7320   -1.6865    0.0000 H   0  0  0  0  0  0  0  0  0  0  0  0
    5.1350   -4.1165    0.0000 H   0  0  0  0  0  0  0  0  0  0  0  0
   12.9842    4.0605    0.0000 H   0  0  0  0  0  0  0  0  0  0  0  0
    3.7320   -4.9265    0.0000 H   0  0  0  0  0  0  0  0  0  0  0  0
   16.1042    2.1206    0.0000 H   0  0  0  0  0  0  0  0  0  0  0  0
    2.0000   -1.6865    0.0000 H   0  0  0  0  0  0  0  0  0  0  0  0
   14.4842    4.9265    0.0000 H   0  0  0  0  0  0  0  0  0  0  0  0
    2.0000   -4.9265    0.0000 H   0  0  0  0  0  0  0  0  0  0  0  0
  1 13  1  0  0  0  0
  1 20  1  0  0  0  0
  2 14  1  0  0  0  0
  2 21  1  0  0  0  0
  3 15  1  0  0  0  0
  3 48  1  0  0  0  0
  4 19  1  0  0  0  0
  4 49  1  0  0  0  0
  5 19  2  0  0  0  0
  6 20  2  0  0  0  0
  7 21  2  0  0  0  0
  8 32  1  0  0  0  0
  8 60  1  0  0  0  0
  9 33  1  0  0  0  0
  9 61  1  0  0  0  0
 10 36  1  0  0  0  0
 10 62  1  0  0  0  0
 11 37  1  0  0  0  0
 11 63  1  0  0  0  0
 12 14  1  0  0  0  0
 12 15  1  0  0  0  0
 12 18  1  0  0  0  0
 12 38  1  0  0  0  0
 13 16  1  0  0  0  0
 13 17  1  0  0  0  0
 13 19  1  0  0  0  0
 14 16  1  0  0  0  0
 14 39  1  0  0  0  0
 15 17  1  0  0  0  0
 15 40  1  0  0  0  0
 16 41  1  0  0  0  0
 16 42  1  0  0  0  0
 17 43  1  0  0  0  0
 17 44  1  0  0  0  0
 18 45  1  0  0  0  0
 18 46  1  0  0  0  0
 18 47  1  0  0  0  0
 20 22  1  0  0  0  0
 21 23  1  0  0  0  0
 22 24  2  0  0  0  0
 22 50  1  0  0  0  0
 23 25  2  0  0  0  0
 23 51  1  0  0  0  0
 24 26  1  0  0  0  0
 24 52  1  0  0  0  0
 25 27  1  0  0  0  0
 25 53  1  0  0  0  0
 26 28  2  0  0  0  0
 26 29  1  0  0  0  0
 27 30  2  0  0  0  0
 27 31  1  0  0  0  0
 28 32  1  0  0  0  0
 28 54  1  0  0  0  0
 29 34  2  0  0  0  0
 29 55  1  0  0  0  0
 30 33  1  0  0  0  0
 30 56  1  0  0  0  0
 31 35  2  0  0  0  0
 31 57  1  0  0  0  0
 32 36  2  0  0  0  0
 33 37  2  0  0  0  0
 34 36  1  0  0  0  0
 34 58  1  0  0  0  0
 35 37  1  0  0  0  0
 35 59  1  0  0  0  0
M  END
> <PUBCHEM_COMPOUND_CID>
20714504

> <PUBCHEM_COMPOUND_CANONICALIZED>
1

> <PUBCHEM_CACTVS_COMPLEXITY>
886

> <PUBCHEM_CACTVS_HBOND_ACCEPTOR>
11

> <PUBCHEM_CACTVS_HBOND_DONOR>
6

> <PUBCHEM_CACTVS_ROTATABLE_BOND>
9

> <PUBCHEM_CACTVS_SUBSKEYS>
AAADceB4PAAAAAAAAAAAAAAAAAAAAAAAAAAwYMAAAAAAAAABQAAAGgAACAAADVSgmAIyDoAABgCIAiDSCAICAAAgIAAIiAFGiMgJNjKCMRaCcAElwBELuYfK6DyOIAABAAAAQADAAAIQABCAAAAAAAAAAA==

> <PUBCHEM_IUPAC_OPENEYE_NAME>
1,3-bis[[(E)-3-(3,4-dihydroxyphenyl)prop-2-enoyl]oxy]-5-hydroxy-4-methyl-cyclohexanecarboxylic acid

> <PUBCHEM_IUPAC_CAS_NAME>
1,3-bis[(E)-3-(3,4-dihydroxyphenyl)-1-oxoprop-2-enoxy]-5-hydroxy-4-methyl-1-cyclohexanecarboxylic acid

> <PUBCHEM_IUPAC_NAME_MARKUP>
1,3-bis[[(<I>E</I>)-3-(3,4-dihydroxyphenyl)prop-2-enoyl]oxy]-5-hydroxy-4-methylcyclohexane-1-carboxylic acid

> <PUBCHEM_IUPAC_NAME>
1,3-bis[[(E)-3-(3,4-dihydroxyphenyl)prop-2-enoyl]oxy]-5-hydroxy-4-methylcyclohexane-1-carboxylic acid

> <PUBCHEM_IUPAC_SYSTEMATIC_NAME>
1,3-bis[[(E)-3-[3,4-bis(oxidanyl)phenyl]prop-2-enoyl]oxy]-4-methyl-5-oxidanyl-cyclohexane-1-carboxylic acid

> <PUBCHEM_IUPAC_TRADITIONAL_NAME>
1,3-bis[[(E)-3-(3,4-dihydroxyphenyl)acryloyl]oxy]-5-hydroxy-4-methyl-cyclohexanecarboxylic acid

> <PUBCHEM_IUPAC_INCHI>
InChI=1S/C26H26O11/c1-14-21(31)12-26(25(34)35,37-24(33)9-5-16-3-7-18(28)20(30)11-16)13-22(14)36-23(32)8-4-15-2-6-17(27)19(29)10-15/h2-11,14,21-22,27-31H,12-13H2,1H3,(H,34,35)/b8-4+,9-5+

> <PUBCHEM_IUPAC_INCHIKEY>
BXMSAZRPGPPROJ-KBXRYBNXSA-N

> <PUBCHEM_XLOGP3_AA>
2.9

> <PUBCHEM_EXACT_MASS>
514.14751164

> <PUBCHEM_MOLECULAR_FORMULA>
C26H26O11

> <PUBCHEM_MOLECULAR_WEIGHT>
514.5

> <PUBCHEM_OPENEYE_CAN_SMILES>
CC1C(CC(CC1OC(=O)C=CC2=CC(=C(C=C2)O)O)(C(=O)O)OC(=O)C=CC3=CC(=C(C=C3)O)O)O

> <PUBCHEM_OPENEYE_ISO_SMILES>
CC1C(CC(CC1OC(=O)/C=C/C2=CC(=C(C=C2)O)O)(C(=O)O)OC(=O)/C=C/C3=CC(=C(C=C3)O)O)O

> <PUBCHEM_CACTVS_TPSA>
191

> <PUBCHEM_MONOISOTOPIC_WEIGHT>
514.14751164

> <PUBCHEM_TOTAL_CHARGE>
0

> <PUBCHEM_HEAVY_ATOM_COUNT>
37

> <PUBCHEM_ATOM_DEF_STEREO_COUNT>
0

> <PUBCHEM_ATOM_UDEF_STEREO_COUNT>
4

> <PUBCHEM_BOND_DEF_STEREO_COUNT>
2

> <PUBCHEM_BOND_UDEF_STEREO_COUNT>
0

> <PUBCHEM_ISOTOPIC_ATOM_COUNT>
0

> <PUBCHEM_COMPONENT_COUNT>
1

> <PUBCHEM_CACTVS_TAUTO_COUNT>
-1

> <PUBCHEM_COORDINATE_TYPE>
1
5
255

> <PUBCHEM_BONDANNOTATIONS>
12  18  3
13  19  3
14  2  3
26  28  8
26  29  8
27  30  8
27  31  8
28  32  8
29  34  8
15  3  3
30  33  8
31  35  8
32  36  8
33  37  8
34  36  8
35  37  8

$$$$
