 
  -OEChem-10192104242D

 48 47  0     1  0  0  0  0  0999 V2000
   15.5273    0.0000    0.0000 O   0  0  0  0  0  0  0  0  0  0  0  0
   14.6613    1.5000    0.0000 O   0  0  0  0  0  0  0  0  0  0  0  0
    2.5369    0.5000    0.0000 O   0  0  0  0  0  0  0  0  0  0  0  0
    3.4030   -1.0000    0.0000 O   0  0  0  0  0  0  0  0  0  0  0  0
    9.4651    0.5000    0.0000 C   0  0  0  0  0  0  0  0  0  0  0  0
   10.3312   -0.0000    0.0000 C   0  0  0  0  0  0  0  0  0  0  0  0
    8.5991   -0.0000    0.0000 C   0  0  0  0  0  0  0  0  0  0  0  0
   11.1972    0.5000    0.0000 C   0  0  0  0  0  0  0  0  0  0  0  0
    7.7331    0.5000    0.0000 C   0  0  0  0  0  0  0  0  0  0  0  0
   12.0632   -0.0000    0.0000 C   0  0  0  0  0  0  0  0  0  0  0  0
    6.8671   -0.0000    0.0000 C   0  0  0  0  0  0  0  0  0  0  0  0
   12.9292    0.5000    0.0000 C   0  0  0  0  0  0  0  0  0  0  0  0
    6.0010    0.5000    0.0000 C   0  0  0  0  0  0  0  0  0  0  0  0
   13.7953    0.0000    0.0000 C   0  0  3  0  0  0  0  0  0  0  0  0
    5.1350   -0.0000    0.0000 C   0  0  0  0  0  0  0  0  0  0  0  0
    4.2690    0.5000    0.0000 C   0  0  0  0  0  0  0  0  0  0  0  0
   13.7953   -1.0000    0.0000 C   0  0  0  0  0  0  0  0  0  0  0  0
   14.6613    0.5000    0.0000 C   0  0  0  0  0  0  0  0  0  0  0  0
    3.4030   -0.0000    0.0000 C   0  0  0  0  0  0  0  0  0  0  0  0
   12.9292   -1.5000    0.0000 C   0  0  0  0  0  0  0  0  0  0  0  0
    9.8637    0.9749    0.0000 H   0  0  0  0  0  0  0  0  0  0  0  0
    9.0666    0.9749    0.0000 H   0  0  0  0  0  0  0  0  0  0  0  0
    9.9326   -0.4749    0.0000 H   0  0  0  0  0  0  0  0  0  0  0  0
   10.7297   -0.4749    0.0000 H   0  0  0  0  0  0  0  0  0  0  0  0
    8.2006   -0.4749    0.0000 H   0  0  0  0  0  0  0  0  0  0  0  0
    8.9976   -0.4749    0.0000 H   0  0  0  0  0  0  0  0  0  0  0  0
   11.5957    0.9749    0.0000 H   0  0  0  0  0  0  0  0  0  0  0  0
   10.7987    0.9749    0.0000 H   0  0  0  0  0  0  0  0  0  0  0  0
    8.1316    0.9749    0.0000 H   0  0  0  0  0  0  0  0  0  0  0  0
    7.3346    0.9749    0.0000 H   0  0  0  0  0  0  0  0  0  0  0  0
   11.6647   -0.4749    0.0000 H   0  0  0  0  0  0  0  0  0  0  0  0
   12.4617   -0.4749    0.0000 H   0  0  0  0  0  0  0  0  0  0  0  0
    6.4685   -0.4749    0.0000 H   0  0  0  0  0  0  0  0  0  0  0  0
    7.2656   -0.4749    0.0000 H   0  0  0  0  0  0  0  0  0  0  0  0
   13.3278    0.9749    0.0000 H   0  0  0  0  0  0  0  0  0  0  0  0
   12.5307    0.9749    0.0000 H   0  0  0  0  0  0  0  0  0  0  0  0
    6.3996    0.9749    0.0000 H   0  0  0  0  0  0  0  0  0  0  0  0
    5.6025    0.9749    0.0000 H   0  0  0  0  0  0  0  0  0  0  0  0
   14.3322   -0.3100    0.0000 H   0  0  0  0  0  0  0  0  0  0  0  0
    4.7365   -0.4749    0.0000 H   0  0  0  0  0  0  0  0  0  0  0  0
    5.5335   -0.4749    0.0000 H   0  0  0  0  0  0  0  0  0  0  0  0
    4.6675    0.9749    0.0000 H   0  0  0  0  0  0  0  0  0  0  0  0
    3.8705    0.9749    0.0000 H   0  0  0  0  0  0  0  0  0  0  0  0
   14.3322   -1.3100    0.0000 H   0  0  0  0  0  0  0  0  0  0  0  0
   12.3923   -1.1900    0.0000 H   0  0  0  0  0  0  0  0  0  0  0  0
   12.9292   -2.1200    0.0000 H   0  0  0  0  0  0  0  0  0  0  0  0
   16.0643    0.3100    0.0000 H   0  0  0  0  0  0  0  0  0  0  0  0
    2.0000    0.1900    0.0000 H   0  0  0  0  0  0  0  0  0  0  0  0
  1 18  1  0  0  0  0
  1 47  1  0  0  0  0
  2 18  2  0  0  0  0
  3 19  1  0  0  0  0
  3 48  1  0  0  0  0
  4 19  2  0  0  0  0
  5  6  1  0  0  0  0
  5  7  1  0  0  0  0
  5 21  1  0  0  0  0
  5 22  1  0  0  0  0
  6  8  1  0  0  0  0
  6 23  1  0  0  0  0
  6 24  1  0  0  0  0
  7  9  1  0  0  0  0
  7 25  1  0  0  0  0
  7 26  1  0  0  0  0
  8 10  1  0  0  0  0
  8 27  1  0  0  0  0
  8 28  1  0  0  0  0
  9 11  1  0  0  0  0
  9 29  1  0  0  0  0
  9 30  1  0  0  0  0
 10 12  1  0  0  0  0
 10 31  1  0  0  0  0
 10 32  1  0  0  0  0
 11 13  1  0  0  0  0
 11 33  1  0  0  0  0
 11 34  1  0  0  0  0
 12 14  1  0  0  0  0
 12 35  1  0  0  0  0
 12 36  1  0  0  0  0
 13 15  1  0  0  0  0
 13 37  1  0  0  0  0
 13 38  1  0  0  0  0
 14 17  1  0  0  0  0
 14 18  1  0  0  0  0
 14 39  1  0  0  0  0
 15 16  1  0  0  0  0
 15 40  1  0  0  0  0
 15 41  1  0  0  0  0
 16 19  1  0  0  0  0
 16 42  1  0  0  0  0
 16 43  1  0  0  0  0
 17 20  2  0  0  0  0
 17 44  1  0  0  0  0
 20 45  1  0  0  0  0
 20 46  1  0  0  0  0
M  END
> <PUBCHEM_COMPOUND_CID>
87751362

> <PUBCHEM_COMPOUND_CANONICALIZED>
1

> <PUBCHEM_CACTVS_COMPLEXITY>
286

> <PUBCHEM_CACTVS_HBOND_ACCEPTOR>
4

> <PUBCHEM_CACTVS_HBOND_DONOR>
2

> <PUBCHEM_CACTVS_ROTATABLE_BOND>
14

> <PUBCHEM_CACTVS_SUBSKEYS>
AAADceB4OAAAAAAAAAAAAAAAAAAAAAAAAAAAAAAAAAAAAAAAAAAAGgAACAAADQCAgAAACAAAAgCIACDSCAAAAAAgAAAIAAEAAAgAABIAAQAAQAAEwAAAAAGIyOCMAAAAAAAAAAAAAAAAAAAAAAAAAAAAAA==

> <PUBCHEM_IUPAC_OPENEYE_NAME>
2-vinyltetradecanedioic acid

> <PUBCHEM_IUPAC_CAS_NAME>
2-ethenyltetradecanedioic acid

> <PUBCHEM_IUPAC_NAME_MARKUP>
2-ethenyltetradecanedioic acid

> <PUBCHEM_IUPAC_NAME>
2-ethenyltetradecanedioic acid

> <PUBCHEM_IUPAC_SYSTEMATIC_NAME>
2-ethenyltetradecanedioic acid

> <PUBCHEM_IUPAC_TRADITIONAL_NAME>
2-vinyltetradecanedioic acid

> <PUBCHEM_IUPAC_INCHI>
InChI=1S/C16H28O4/c1-2-14(16(19)20)12-10-8-6-4-3-5-7-9-11-13-15(17)18/h2,14H,1,3-13H2,(H,17,18)(H,19,20)

> <PUBCHEM_IUPAC_INCHIKEY>
HDOYUELBXNUMOR-UHFFFAOYSA-N

> <PUBCHEM_XLOGP3_AA>
5.1

> <PUBCHEM_EXACT_MASS>
284.19875937

> <PUBCHEM_MOLECULAR_FORMULA>
C16H28O4

> <PUBCHEM_MOLECULAR_WEIGHT>
284.39

> <PUBCHEM_OPENEYE_CAN_SMILES>
C=CC(CCCCCCCCCCCC(=O)O)C(=O)O

> <PUBCHEM_OPENEYE_ISO_SMILES>
C=CC(CCCCCCCCCCCC(=O)O)C(=O)O

> <PUBCHEM_CACTVS_TPSA>
74.6

> <PUBCHEM_MONOISOTOPIC_WEIGHT>
284.19875937

> <PUBCHEM_TOTAL_CHARGE>
0

> <PUBCHEM_HEAVY_ATOM_COUNT>
20

> <PUBCHEM_ATOM_DEF_STEREO_COUNT>
0

> <PUBCHEM_ATOM_UDEF_STEREO_COUNT>
1

> <PUBCHEM_BOND_DEF_STEREO_COUNT>
0

> <PUBCHEM_BOND_UDEF_STEREO_COUNT>
0

> <PUBCHEM_ISOTOPIC_ATOM_COUNT>
0

> <PUBCHEM_COMPONENT_COUNT>
1

> <PUBCHEM_CACTVS_TAUTO_COUNT>
-1

> <PUBCHEM_COORDINATE_TYPE>
1
5
255

> <PUBCHEM_BONDANNOTATIONS>
14  12  3

$$$$
