 
  -OEChem-10192104002D

 74 77  0     1  0  0  0  0  0999 V2000
    6.0010    1.4161    0.0000 O   0  0  0  0  0  0  0  0  0  0  0  0
    7.7331    1.4161    0.0000 O   0  0  0  0  0  0  0  0  0  0  0  0
    7.6990    5.3570    0.0000 O   0  0  0  0  0  0  0  0  0  0  0  0
    6.8671   -0.0839    0.0000 O   0  0  0  0  0  0  0  0  0  0  0  0
    9.4651    0.4161    0.0000 O   0  0  0  0  0  0  0  0  0  0  0  0
    6.0010   -2.5839    0.0000 O   0  0  0  0  0  0  0  0  0  0  0  0
    3.4030    2.9161    0.0000 O   0  0  0  0  0  0  0  0  0  0  0  0
    9.4651   -1.5839    0.0000 O   0  0  0  0  0  0  0  0  0  0  0  0
    7.7331   -2.5839    0.0000 O   0  0  0  0  0  0  0  0  0  0  0  0
    4.2690   -2.5839    0.0000 O   0  0  0  0  0  0  0  0  0  0  0  0
    4.2690    4.4161    0.0000 O   0  0  0  0  0  0  0  0  0  0  0  0
    6.0010   -4.5839    0.0000 O   0  0  0  0  0  0  0  0  0  0  0  0
    4.2690   -5.5839    0.0000 O   0  0  0  0  0  0  0  0  0  0  0  0
    2.5369   -4.5839    0.0000 O   0  0  0  0  0  0  0  0  0  0  0  0
    2.5369   -1.5839    0.0000 O   0  0  0  0  0  0  0  0  0  0  0  0
    6.8671    2.9161    0.0000 C   0  0  1  0  0  0  0  0  0  0  0  0
    6.0010    3.4161    0.0000 C   0  0  2  0  0  0  0  0  0  0  0  0
    7.6041    3.5832    0.0000 C   0  0  2  0  0  0  0  0  0  0  0  0
    7.1990    4.4910    0.0000 C   0  0  2  0  0  0  0  0  0  0  0  0
    6.2102    4.3879    0.0000 C   0  0  0  0  0  0  0  0  0  0  0  0
    6.8671    1.9161    0.0000 C   0  0  1  0  0  0  0  0  0  0  0  0
    5.1350    2.9161    0.0000 C   0  0  0  0  0  0  0  0  0  0  0  0
    8.5826    3.3770    0.0000 C   0  0  0  0  0  0  0  0  0  0  0  0
    5.1350    1.9161    0.0000 C   0  0  0  0  0  0  0  0  0  0  0  0
    7.7331    0.4161    0.0000 C   0  0  2  0  0  0  0  0  0  0  0  0
    8.5991   -0.0839    0.0000 C   0  0  1  0  0  0  0  0  0  0  0  0
    8.5991   -1.0839    0.0000 C   0  0  2  0  0  0  0  0  0  0  0  0
    6.8671   -1.0839    0.0000 C   0  0  1  0  0  0  0  0  0  0  0  0
    4.2690    3.4161    0.0000 C   0  0  0  0  0  0  0  0  0  0  0  0
    7.7331   -1.5839    0.0000 C   0  0  1  0  0  0  0  0  0  0  0  0
    6.0010   -1.5839    0.0000 C   0  0  0  0  0  0  0  0  0  0  0  0
    5.1350   -3.0839    0.0000 C   0  0  2  0  0  0  0  0  0  0  0  0
    5.1350   -4.0839    0.0000 C   0  0  1  0  0  0  0  0  0  0  0  0
    4.2690   -4.5839    0.0000 C   0  0  2  0  0  0  0  0  0  0  0  0
    3.4030   -4.0839    0.0000 C   0  0  1  0  0  0  0  0  0  0  0  0
    3.4030   -3.0839    0.0000 C   0  0  1  0  0  0  0  0  0  0  0  0
    2.5369   -2.5839    0.0000 C   0  0  0  0  0  0  0  0  0  0  0  0
    2.5369    3.4161    0.0000 C   0  0  0  0  0  0  0  0  0  0  0  0
    7.6440    2.5714    0.0000 H   0  0  0  0  0  0  0  0  0  0  0  0
    5.3140    3.9166    0.0000 H   0  0  0  0  0  0  0  0  0  0  0  0
    7.7658    2.9846    0.0000 H   0  0  0  0  0  0  0  0  0  0  0  0
    7.8181    4.4588    0.0000 H   0  0  0  0  0  0  0  0  0  0  0  0
    6.2111    5.0079    0.0000 H   0  0  0  0  0  0  0  0  0  0  0  0
    5.5938    4.4540    0.0000 H   0  0  0  0  0  0  0  0  0  0  0  0
    7.4040    2.2261    0.0000 H   0  0  0  0  0  0  0  0  0  0  0  0
    8.4547    2.7703    0.0000 H   0  0  0  0  0  0  0  0  0  0  0  0
    9.1893    3.2491    0.0000 H   0  0  0  0  0  0  0  0  0  0  0  0
    8.7104    3.9836    0.0000 H   0  0  0  0  0  0  0  0  0  0  0  0
    4.5981    1.6061    0.0000 H   0  0  0  0  0  0  0  0  0  0  0  0
    7.1962    0.7261    0.0000 H   0  0  0  0  0  0  0  0  0  0  0  0
    7.3890    5.8939    0.0000 H   0  0  0  0  0  0  0  0  0  0  0  0
    8.5991    0.5361    0.0000 H   0  0  0  0  0  0  0  0  0  0  0  0
    9.1360   -0.7739    0.0000 H   0  0  0  0  0  0  0  0  0  0  0  0
    6.3301   -0.7739    0.0000 H   0  0  0  0  0  0  0  0  0  0  0  0
    8.2700   -1.8939    0.0000 H   0  0  0  0  0  0  0  0  0  0  0  0
    5.7890   -1.0013    0.0000 H   0  0  0  0  0  0  0  0  0  0  0  0
    5.3905   -1.6916    0.0000 H   0  0  0  0  0  0  0  0  0  0  0  0
    5.1350   -2.4639    0.0000 H   0  0  0  0  0  0  0  0  0  0  0  0
    5.1350   -4.7039    0.0000 H   0  0  0  0  0  0  0  0  0  0  0  0
    3.7320   -4.8939    0.0000 H   0  0  0  0  0  0  0  0  0  0  0  0
    3.4030   -4.7039    0.0000 H   0  0  0  0  0  0  0  0  0  0  0  0
    3.4030   -2.4639    0.0000 H   0  0  0  0  0  0  0  0  0  0  0  0
    9.4651    1.0361    0.0000 H   0  0  0  0  0  0  0  0  0  0  0  0
   10.0021   -1.2739    0.0000 H   0  0  0  0  0  0  0  0  0  0  0  0
    8.2700   -2.8939    0.0000 H   0  0  0  0  0  0  0  0  0  0  0  0
    1.9264   -2.4762    0.0000 H   0  0  0  0  0  0  0  0  0  0  0  0
    2.3249   -3.1665    0.0000 H   0  0  0  0  0  0  0  0  0  0  0  0
    2.8469    3.9530    0.0000 H   0  0  0  0  0  0  0  0  0  0  0  0
    2.0000    3.7261    0.0000 H   0  0  0  0  0  0  0  0  0  0  0  0
    2.2269    2.8792    0.0000 H   0  0  0  0  0  0  0  0  0  0  0  0
    6.5380   -4.2739    0.0000 H   0  0  0  0  0  0  0  0  0  0  0  0
    3.7320   -5.8939    0.0000 H   0  0  0  0  0  0  0  0  0  0  0  0
    2.0000   -4.2739    0.0000 H   0  0  0  0  0  0  0  0  0  0  0  0
    2.0000   -1.2739    0.0000 H   0  0  0  0  0  0  0  0  0  0  0  0
  1 21  1  0  0  0  0
  1 24  1  0  0  0  0
 21  2  1  6  0  0  0
 25  2  1  1  0  0  0
 19  3  1  6  0  0  0
  3 51  1  0  0  0  0
  4 25  1  0  0  0  0
  4 28  1  0  0  0  0
 26  5  1  6  0  0  0
  5 63  1  0  0  0  0
  6 31  1  0  0  0  0
 32  6  1  1  0  0  0
  7 29  1  0  0  0  0
  7 38  1  0  0  0  0
 27  8  1  1  0  0  0
  8 64  1  0  0  0  0
 30  9  1  6  0  0  0
  9 65  1  0  0  0  0
 10 32  1  0  0  0  0
 10 36  1  0  0  0  0
 11 29  2  0  0  0  0
 33 12  1  6  0  0  0
 12 71  1  0  0  0  0
 34 13  1  1  0  0  0
 13 72  1  0  0  0  0
 35 14  1  6  0  0  0
 14 73  1  0  0  0  0
 15 37  1  0  0  0  0
 15 74  1  0  0  0  0
 16 17  1  0  0  0  0
 16 18  1  0  0  0  0
 16 21  1  0  0  0  0
 16 39  1  6  0  0  0
 17 20  1  0  0  0  0
 17 22  1  0  0  0  0
 17 40  1  6  0  0  0
 18 19  1  0  0  0  0
 18 23  1  6  0  0  0
 18 41  1  0  0  0  0
 19 20  1  0  0  0  0
 19 42  1  0  0  0  0
 20 43  1  0  0  0  0
 20 44  1  0  0  0  0
 21 45  1  0  0  0  0
 22 24  2  0  0  0  0
 22 29  1  0  0  0  0
 23 46  1  0  0  0  0
 23 47  1  0  0  0  0
 23 48  1  0  0  0  0
 24 49  1  0  0  0  0
 25 26  1  0  0  0  0
 25 50  1  0  0  0  0
 26 27  1  0  0  0  0
 26 52  1  0  0  0  0
 27 30  1  0  0  0  0
 27 53  1  0  0  0  0
 28 30  1  0  0  0  0
 28 31  1  1  0  0  0
 28 54  1  0  0  0  0
 30 55  1  0  0  0  0
 31 56  1  0  0  0  0
 31 57  1  0  0  0  0
 32 33  1  0  0  0  0
 32 58  1  0  0  0  0
 33 34  1  0  0  0  0
 33 59  1  0  0  0  0
 34 35  1  0  0  0  0
 34 60  1  0  0  0  0
 35 36  1  0  0  0  0
 35 61  1  0  0  0  0
 36 37  1  1  0  0  0
 36 62  1  0  0  0  0
 37 66  1  0  0  0  0
 37 67  1  0  0  0  0
 38 68  1  0  0  0  0
 38 69  1  0  0  0  0
 38 70  1  0  0  0  0
M  END
> <PUBCHEM_COMPOUND_CID>
101147118

> <PUBCHEM_COMPOUND_CANONICALIZED>
1

> <PUBCHEM_CACTVS_COMPLEXITY>
855

> <PUBCHEM_CACTVS_HBOND_ACCEPTOR>
15

> <PUBCHEM_CACTVS_HBOND_DONOR>
8

> <PUBCHEM_CACTVS_ROTATABLE_BOND>
8

> <PUBCHEM_CACTVS_SUBSKEYS>
AAADcfB4PAAAAAAAAAAAAAAAAAAAAYAAAAAkSIAAAAAAAEAAAAAAGgAACAAADRSwgAMCCAAABgCIAgDSCAAACAAgIAAAAAEAAEgRFBIAIQAiQAAFgAAHIIHI7PzOgAAAAAAAAAAAAAAAAAAAAYAADAAAAA==

> <PUBCHEM_IUPAC_OPENEYE_NAME>
methyl (1S,4aS,6S,7R,7aS)-6-hydroxy-7-methyl-1-[(2S,3R,4S,5S,6R)-3,4,5-trihydroxy-6-[[(2R,3R,4S,5S,6R)-3,4,5-trihydroxy-6-(hydroxymethyl)tetrahydropyran-2-yl]oxymethyl]tetrahydropyran-2-yl]oxy-1,4a,5,6,7,7a-hexahydrocyclopenta[c]pyran-4-carboxylate

> <PUBCHEM_IUPAC_CAS_NAME>
(1S,4aS,6S,7R,7aS)-6-hydroxy-7-methyl-1-[[(2S,3R,4S,5S,6R)-3,4,5-trihydroxy-6-[[(2R,3R,4S,5S,6R)-3,4,5-trihydroxy-6-(hydroxymethyl)-2-oxanyl]oxymethyl]-2-oxanyl]oxy]-1,4a,5,6,7,7a-hexahydrocyclopenta[c]pyran-4-carboxylic acid methyl ester

> <PUBCHEM_IUPAC_NAME_MARKUP>
methyl (1<I>S</I>,4<I>a</I><I>S</I>,6<I>S</I>,7<I>R</I>,7<I>a</I><I>S</I>)-6-hydroxy-7-methyl-1-[(2<I>S</I>,3<I>R</I>,4<I>S</I>,5<I>S</I>,6<I>R</I>)-3,4,5-trihydroxy-6-[[(2<I>R</I>,3<I>R</I>,4<I>S</I>,5<I>S</I>,6<I>R</I>)-3,4,5-trihydroxy-6-(hydroxymethyl)oxan-2-yl]oxymethyl]oxan-2-yl]oxy-1,4<I>a</I>,5,6,7,7<I>a</I>-hexahydrocyclopenta[c]pyran-4-carboxylate

> <PUBCHEM_IUPAC_NAME>
methyl (1S,4aS,6S,7R,7aS)-6-hydroxy-7-methyl-1-[(2S,3R,4S,5S,6R)-3,4,5-trihydroxy-6-[[(2R,3R,4S,5S,6R)-3,4,5-trihydroxy-6-(hydroxymethyl)oxan-2-yl]oxymethyl]oxan-2-yl]oxy-1,4a,5,6,7,7a-hexahydrocyclopenta[c]pyran-4-carboxylate

> <PUBCHEM_IUPAC_SYSTEMATIC_NAME>
methyl (1S,4aS,6S,7R,7aS)-1-[(2S,3R,4S,5S,6R)-6-[[(2R,3R,4S,5S,6R)-6-(hydroxymethyl)-3,4,5-tris(oxidanyl)oxan-2-yl]oxymethyl]-3,4,5-tris(oxidanyl)oxan-2-yl]oxy-7-methyl-6-oxidanyl-1,4a,5,6,7,7a-hexahydrocyclopenta[c]pyran-4-carboxylate

> <PUBCHEM_IUPAC_TRADITIONAL_NAME>
(1S,4aS,6S,7R,7aS)-6-hydroxy-7-methyl-1-[(2S,3R,4S,5S,6R)-3,4,5-trihydroxy-6-[[(2R,3R,4S,5S,6R)-3,4,5-trihydroxy-6-methylol-tetrahydropyran-2-yl]oxymethyl]tetrahydropyran-2-yl]oxy-1,4a,5,6,7,7a-hexahydrocyclopenta[c]pyran-4-carboxylic acid methyl ester

> <PUBCHEM_IUPAC_INCHI>
InChI=1S/C23H36O15/c1-7-10(25)3-8-9(20(32)33-2)5-34-21(13(7)8)38-23-19(31)17(29)15(27)12(37-23)6-35-22-18(30)16(28)14(26)11(4-24)36-22/h5,7-8,10-19,21-31H,3-4,6H2,1-2H3/t7-,8+,10-,11+,12+,13+,14+,15+,16-,17-,18+,19+,21-,22+,23-/m0/s1

> <PUBCHEM_IUPAC_INCHIKEY>
LPSUUJXKRDTLPK-YBYPSQOCSA-N

> <PUBCHEM_XLOGP3_AA>
-3.5

> <PUBCHEM_EXACT_MASS>
552.20542044

> <PUBCHEM_MOLECULAR_FORMULA>
C23H36O15

> <PUBCHEM_MOLECULAR_WEIGHT>
552.5

> <PUBCHEM_OPENEYE_CAN_SMILES>
CC1C(CC2C1C(OC=C2C(=O)OC)OC3C(C(C(C(O3)COC4C(C(C(C(O4)CO)O)O)O)O)O)O)O

> <PUBCHEM_OPENEYE_ISO_SMILES>
C[C@H]1[C@H](C[C@H]2[C@@H]1[C@@H](OC=C2C(=O)OC)O[C@H]3[C@@H]([C@H]([C@@H]([C@H](O3)CO[C@H]4[C@@H]([C@H]([C@@H]([C@H](O4)CO)O)O)O)O)O)O)O

> <PUBCHEM_CACTVS_TPSA>
234

> <PUBCHEM_MONOISOTOPIC_WEIGHT>
552.20542044

> <PUBCHEM_TOTAL_CHARGE>
0

> <PUBCHEM_HEAVY_ATOM_COUNT>
38

> <PUBCHEM_ATOM_DEF_STEREO_COUNT>
15

> <PUBCHEM_ATOM_UDEF_STEREO_COUNT>
0

> <PUBCHEM_BOND_DEF_STEREO_COUNT>
0

> <PUBCHEM_BOND_UDEF_STEREO_COUNT>
0

> <PUBCHEM_ISOTOPIC_ATOM_COUNT>
0

> <PUBCHEM_COMPONENT_COUNT>
1

> <PUBCHEM_CACTVS_TAUTO_COUNT>
-1

> <PUBCHEM_COORDINATE_TYPE>
1
5
255

> <PUBCHEM_BONDANNOTATIONS>
33  12  6
34  13  5
35  14  6
16  39  6
17  40  6
18  23  6
21  2  6
25  2  5
28  31  5
19  3  6
36  37  5
26  5  6
32  6  5
27  8  5
30  9  6

$$$$
