 
  -OEChem-10192103502D

 73 75  0     1  0  0  0  0  0999 V2000
    9.4081   -2.6053    0.0000 O   0  0  0  0  0  0  0  0  0  0  0  0
    4.2690    3.4824    0.0000 O   0  0  0  0  0  0  0  0  0  0  0  0
    6.8390   -2.2963    0.0000 O   0  0  0  0  0  0  0  0  0  0  0  0
    6.0010    5.4824    0.0000 O   0  0  0  0  0  0  0  0  0  0  0  0
    7.5113   -4.3654    0.0000 O   0  0  0  0  0  0  0  0  0  0  0  0
    4.2690    6.4824    0.0000 O   0  0  0  0  0  0  0  0  0  0  0  0
    2.5369    5.4824    0.0000 O   0  0  0  0  0  0  0  0  0  0  0  0
    2.5369    2.4824    0.0000 O   0  0  0  0  0  0  0  0  0  0  0  0
    5.1350    1.9824    0.0000 O   0  0  0  0  0  0  0  0  0  0  0  0
    8.5991    0.9825    0.0000 O   0  0  0  0  0  0  0  0  0  0  0  0
    8.2856   -5.3835    0.0000 O   0  0  0  0  0  0  0  0  0  0  0  0
   11.4503   -6.7924    0.0000 O   0  0  0  0  0  0  0  0  0  0  0  0
    4.2690   -0.5175    0.0000 O   0  0  0  0  0  0  0  0  0  0  0  0
    9.6869   -4.3654    0.0000 N   0  0  0  0  0  0  0  0  0  0  0  0
    7.7331   -0.5175    0.0000 N   0  0  0  0  0  0  0  0  0  0  0  0
    6.8671    1.9824    0.0000 N   0  0  0  0  0  0  0  0  0  0  0  0
    9.8680   -6.0880    0.0000 N   0  0  0  0  0  0  0  0  0  0  0  0
    5.1350   -2.0176    0.0000 N   0  0  0  0  0  0  0  0  0  0  0  0
    8.5991   -2.0176    0.0000 C   0  0  1  0  0  0  0  0  0  0  0  0
    7.7901   -2.6053    0.0000 C   0  0  2  0  0  0  0  0  0  0  0  0
    5.1350    3.9824    0.0000 C   0  0  1  0  0  0  0  0  0  0  0  0
    5.1350    4.9824    0.0000 C   0  0  1  0  0  0  0  0  0  0  0  0
    8.0991   -3.5564    0.0000 C   0  0  2  0  0  0  0  0  0  0  0  0
    4.2690    5.4824    0.0000 C   0  0  2  0  0  0  0  0  0  0  0  0
    3.4030    4.9824    0.0000 C   0  0  2  0  0  0  0  0  0  0  0  0
    9.0991   -3.5564    0.0000 C   0  0  1  0  0  0  0  0  0  0  0  0
    3.4030    3.9824    0.0000 C   0  0  1  0  0  0  0  0  0  0  0  0
    8.5991   -1.0176    0.0000 C   0  0  0  0  0  0  0  0  0  0  0  0
    6.0010    3.4824    0.0000 C   0  0  0  0  0  0  0  0  0  0  0  0
    2.5369    3.4824    0.0000 C   0  0  0  0  0  0  0  0  0  0  0  0
    6.8671    0.9825    0.0000 C   0  0  2  0  0  0  0  0  0  0  0  0
    6.0010    2.4824    0.0000 C   0  0  0  0  0  0  0  0  0  0  0  0
    7.7331    0.4825    0.0000 C   0  0  0  0  0  0  0  0  0  0  0  0
    6.0010    0.4825    0.0000 C   0  0  0  0  0  0  0  0  0  0  0  0
    9.2802   -5.2790    0.0000 C   0  0  0  0  0  0  0  0  0  0  0  0
   10.6814   -4.2609    0.0000 C   0  0  0  0  0  0  0  0  0  0  0  0
    6.0010   -0.5175    0.0000 C   0  0  0  0  0  0  0  0  0  0  0  0
   11.2692   -5.0699    0.0000 C   0  0  0  0  0  0  0  0  0  0  0  0
   10.8625   -5.9834    0.0000 C   0  0  0  0  0  0  0  0  0  0  0  0
    5.1350   -1.0176    0.0000 C   0  0  0  0  0  0  0  0  0  0  0  0
    9.1515   -1.7361    0.0000 H   0  0  0  0  0  0  0  0  0  0  0  0
    7.3517   -3.0437    0.0000 H   0  0  0  0  0  0  0  0  0  0  0  0
    5.1350    3.3624    0.0000 H   0  0  0  0  0  0  0  0  0  0  0  0
    5.1350    5.6024    0.0000 H   0  0  0  0  0  0  0  0  0  0  0  0
    8.3806   -4.1088    0.0000 H   0  0  0  0  0  0  0  0  0  0  0  0
    3.7320    5.7924    0.0000 H   0  0  0  0  0  0  0  0  0  0  0  0
    3.4030    5.6024    0.0000 H   0  0  0  0  0  0  0  0  0  0  0  0
    8.8176   -4.1088    0.0000 H   0  0  0  0  0  0  0  0  0  0  0  0
    3.4030    3.3624    0.0000 H   0  0  0  0  0  0  0  0  0  0  0  0
    9.2097   -1.1252    0.0000 H   0  0  0  0  0  0  0  0  0  0  0  0
    8.8112   -0.4349    0.0000 H   0  0  0  0  0  0  0  0  0  0  0  0
    6.6116    3.3748    0.0000 H   0  0  0  0  0  0  0  0  0  0  0  0
    6.2131    4.0651    0.0000 H   0  0  0  0  0  0  0  0  0  0  0  0
    2.3249    4.0651    0.0000 H   0  0  0  0  0  0  0  0  0  0  0  0
    1.9264    3.3748    0.0000 H   0  0  0  0  0  0  0  0  0  0  0  0
    7.1962   -0.8275    0.0000 H   0  0  0  0  0  0  0  0  0  0  0  0
    6.3301    1.2925    0.0000 H   0  0  0  0  0  0  0  0  0  0  0  0
    6.3783   -2.7112    0.0000 H   0  0  0  0  0  0  0  0  0  0  0  0
    6.5380    5.1725    0.0000 H   0  0  0  0  0  0  0  0  0  0  0  0
    6.8947   -4.3006    0.0000 H   0  0  0  0  0  0  0  0  0  0  0  0
    4.8059    6.7924    0.0000 H   0  0  0  0  0  0  0  0  0  0  0  0
    2.0000    5.1725    0.0000 H   0  0  0  0  0  0  0  0  0  0  0  0
    7.4040    2.2924    0.0000 H   0  0  0  0  0  0  0  0  0  0  0  0
    5.7890    1.0651    0.0000 H   0  0  0  0  0  0  0  0  0  0  0  0
    5.3905    0.3748    0.0000 H   0  0  0  0  0  0  0  0  0  0  0  0
   10.9336   -3.6945    0.0000 H   0  0  0  0  0  0  0  0  0  0  0  0
    2.0000    2.1724    0.0000 H   0  0  0  0  0  0  0  0  0  0  0  0
    6.2131   -1.1002    0.0000 H   0  0  0  0  0  0  0  0  0  0  0  0
    6.6116   -0.4099    0.0000 H   0  0  0  0  0  0  0  0  0  0  0  0
    9.6158   -6.6544    0.0000 H   0  0  0  0  0  0  0  0  0  0  0  0
   11.8858   -5.0051    0.0000 H   0  0  0  0  0  0  0  0  0  0  0  0
    4.5981   -2.3276    0.0000 H   0  0  0  0  0  0  0  0  0  0  0  0
    5.6720   -2.3276    0.0000 H   0  0  0  0  0  0  0  0  0  0  0  0
  1 19  1  0  0  0  0
  1 26  1  0  0  0  0
  2 21  1  0  0  0  0
  2 27  1  0  0  0  0
 20  3  1  6  0  0  0
  3 58  1  0  0  0  0
 22  4  1  1  0  0  0
  4 59  1  0  0  0  0
 23  5  1  6  0  0  0
  5 60  1  0  0  0  0
 24  6  1  6  0  0  0
  6 61  1  0  0  0  0
 25  7  1  6  0  0  0
  7 62  1  0  0  0  0
  8 30  1  0  0  0  0
  8 67  1  0  0  0  0
  9 32  2  0  0  0  0
 10 33  2  0  0  0  0
 11 35  2  0  0  0  0
 12 39  2  0  0  0  0
 13 40  2  0  0  0  0
 26 14  1  1  0  0  0
 14 35  1  0  0  0  0
 14 36  1  0  0  0  0
 15 28  1  0  0  0  0
 15 33  1  0  0  0  0
 15 56  1  0  0  0  0
 31 16  1  6  0  0  0
 16 32  1  0  0  0  0
 16 63  1  0  0  0  0
 17 35  1  0  0  0  0
 17 39  1  0  0  0  0
 17 70  1  0  0  0  0
 18 40  1  0  0  0  0
 18 72  1  0  0  0  0
 18 73  1  0  0  0  0
 19 20  1  0  0  0  0
 19 28  1  1  0  0  0
 19 41  1  0  0  0  0
 20 23  1  0  0  0  0
 20 42  1  0  0  0  0
 21 22  1  0  0  0  0
 21 29  1  1  0  0  0
 21 43  1  0  0  0  0
 22 24  1  0  0  0  0
 22 44  1  0  0  0  0
 23 26  1  0  0  0  0
 23 45  1  0  0  0  0
 24 25  1  0  0  0  0
 24 46  1  0  0  0  0
 25 27  1  0  0  0  0
 25 47  1  0  0  0  0
 26 48  1  0  0  0  0
 27 30  1  6  0  0  0
 27 49  1  0  0  0  0
 28 50  1  0  0  0  0
 28 51  1  0  0  0  0
 29 32  1  0  0  0  0
 29 52  1  0  0  0  0
 29 53  1  0  0  0  0
 30 54  1  0  0  0  0
 30 55  1  0  0  0  0
 31 33  1  0  0  0  0
 31 34  1  0  0  0  0
 31 57  1  0  0  0  0
 34 37  1  0  0  0  0
 34 64  1  0  0  0  0
 34 65  1  0  0  0  0
 36 38  2  0  0  0  0
 36 66  1  0  0  0  0
 37 40  1  0  0  0  0
 37 68  1  0  0  0  0
 37 69  1  0  0  0  0
 38 39  1  0  0  0  0
 38 71  1  0  0  0  0
M  END
> <PUBCHEM_COMPOUND_CID>
53326469

> <PUBCHEM_COMPOUND_CANONICALIZED>
1

> <PUBCHEM_CACTVS_COMPLEXITY>
1010

> <PUBCHEM_CACTVS_HBOND_ACCEPTOR>
13

> <PUBCHEM_CACTVS_HBOND_DONOR>
10

> <PUBCHEM_CACTVS_ROTATABLE_BOND>
11

> <PUBCHEM_CACTVS_SUBSKEYS>
AAADcfB7vAAAAAAAAAAAAAAAAAAAASAAAAAkQAAAAAAAAAAAAAAAHgAQCAAACDzhgAYBAAPABgCIACFWUACAAAAAAgAIAIGIAECDUBYAgCAfQAAPNyKTAMH+/6bAAAAAAAAAAAAAAAAAAAAAAAAAAAAAAA==

> <PUBCHEM_IUPAC_OPENEYE_NAME>
(2S)-N-[[(2R,3S,4R,5R)-5-(2,4-dioxopyrimidin-1-yl)-3,4-dihydroxy-tetrahydrofuran-2-yl]methyl]-2-[[2-[(2R,3R,4R,5R,6R)-3,4,5-trihydroxy-6-(hydroxymethyl)tetrahydropyran-2-yl]acetyl]amino]pentanediamide

> <PUBCHEM_IUPAC_CAS_NAME>
(2S)-N-[[(2R,3S,4R,5R)-5-(2,4-dioxo-1-pyrimidinyl)-3,4-dihydroxy-2-oxolanyl]methyl]-2-[[1-oxo-2-[(2R,3R,4R,5R,6R)-3,4,5-trihydroxy-6-(hydroxymethyl)-2-oxanyl]ethyl]amino]pentanediamide

> <PUBCHEM_IUPAC_NAME_MARKUP>
(2<I>S</I>)-<I>N</I>-[[(2<I>R</I>,3<I>S</I>,4<I>R</I>,5<I>R</I>)-5-(2,4-dioxopyrimidin-1-yl)-3,4-dihydroxyoxolan-2-yl]methyl]-2-[[2-[(2<I>R</I>,3<I>R</I>,4<I>R</I>,5<I>R</I>,6<I>R</I>)-3,4,5-trihydroxy-6-(hydroxymethyl)oxan-2-yl]acetyl]amino]pentanediamide

> <PUBCHEM_IUPAC_NAME>
(2S)-N-[[(2R,3S,4R,5R)-5-(2,4-dioxopyrimidin-1-yl)-3,4-dihydroxyoxolan-2-yl]methyl]-2-[[2-[(2R,3R,4R,5R,6R)-3,4,5-trihydroxy-6-(hydroxymethyl)oxan-2-yl]acetyl]amino]pentanediamide

> <PUBCHEM_IUPAC_SYSTEMATIC_NAME>
(2S)-N-[[(2R,3S,4R,5R)-5-[2,4-bis(oxidanylidene)pyrimidin-1-yl]-3,4-bis(oxidanyl)oxolan-2-yl]methyl]-2-[2-[(2R,3R,4R,5R,6R)-6-(hydroxymethyl)-3,4,5-tris(oxidanyl)oxan-2-yl]ethanoylamino]pentanediamide

> <PUBCHEM_IUPAC_TRADITIONAL_NAME>
(2S)-N-[[(2R,3S,4R,5R)-5-(2,4-diketopyrimidin-1-yl)-3,4-dihydroxy-tetrahydrofuran-2-yl]methyl]-2-[[2-[(2R,3R,4R,5R,6R)-3,4,5-trihydroxy-6-methylol-tetrahydropyran-2-yl]acetyl]amino]glutaramide

> <PUBCHEM_IUPAC_INCHI>
InChI=1S/C22H33N5O13/c23-12(29)2-1-8(25-14(31)5-9-15(32)18(35)17(34)11(7-28)39-9)20(37)24-6-10-16(33)19(36)21(40-10)27-4-3-13(30)26-22(27)38/h3-4,8-11,15-19,21,28,32-36H,1-2,5-7H2,(H2,23,29)(H,24,37)(H,25,31)(H,26,30,38)/t8-,9+,10+,11+,15-,16+,17-,18+,19+,21+/m0/s1

> <PUBCHEM_IUPAC_INCHIKEY>
OWFXMGVGYTWVCP-ZBXYEUSISA-N

> <PUBCHEM_XLOGP3_AA>
-6

> <PUBCHEM_EXACT_MASS>
575.20748612

> <PUBCHEM_MOLECULAR_FORMULA>
C22H33N5O13

> <PUBCHEM_MOLECULAR_WEIGHT>
575.5

> <PUBCHEM_OPENEYE_CAN_SMILES>
C1=CN(C(=O)NC1=O)C2C(C(C(O2)CNC(=O)C(CCC(=O)N)NC(=O)CC3C(C(C(C(O3)CO)O)O)O)O)O

> <PUBCHEM_OPENEYE_ISO_SMILES>
C1=CN(C(=O)NC1=O)[C@H]2[C@@H]([C@@H]([C@H](O2)CNC(=O)[C@H](CCC(=O)N)NC(=O)C[C@@H]3[C@@H]([C@H]([C@H]([C@H](O3)CO)O)O)O)O)O

> <PUBCHEM_CACTVS_TPSA>
291

> <PUBCHEM_MONOISOTOPIC_WEIGHT>
575.20748612

> <PUBCHEM_TOTAL_CHARGE>
0

> <PUBCHEM_HEAVY_ATOM_COUNT>
40

> <PUBCHEM_ATOM_DEF_STEREO_COUNT>
10

> <PUBCHEM_ATOM_UDEF_STEREO_COUNT>
0

> <PUBCHEM_BOND_DEF_STEREO_COUNT>
0

> <PUBCHEM_BOND_UDEF_STEREO_COUNT>
0

> <PUBCHEM_ISOTOPIC_ATOM_COUNT>
0

> <PUBCHEM_COMPONENT_COUNT>
1

> <PUBCHEM_CACTVS_TAUTO_COUNT>
-1

> <PUBCHEM_COORDINATE_TYPE>
1
5
255

> <PUBCHEM_BONDANNOTATIONS>
26  14  5
14  35  8
14  36  8
31  16  6
17  35  8
17  39  8
19  28  5
21  29  5
27  30  6
20  3  6
36  38  8
38  39  8
22  4  5
23  5  6
24  6  6
25  7  6

$$$$
