 
  -OEChem-10192104072D

 69 73  0     1  0  0  0  0  0999 V2000
    8.8256    0.2367    0.0000 O   0  0  0  0  0  0  0  0  0  0  0  0
    6.8796   -2.1772    0.0000 O   0  0  0  0  0  0  0  0  0  0  0  0
    8.1396   -2.4372    0.0000 O   0  0  0  0  0  0  0  0  0  0  0  0
    5.0796   -0.1564    0.0000 O   0  0  0  0  0  0  0  0  0  0  0  0
    5.9972    1.3574    0.0000 O   0  0  0  0  0  0  0  0  0  0  0  0
    7.6496    1.8544    0.0000 O   0  0  0  0  0  0  0  0  0  0  0  0
    5.1475   -2.1772    0.0000 O   0  0  0  0  0  0  0  0  0  0  0  0
    5.1486    2.8673    0.0000 O   0  0  0  0  0  0  0  0  0  0  0  0
    6.8796   -4.1772    0.0000 O   0  0  0  0  0  0  0  0  0  0  0  0
    5.1475   -5.1772    0.0000 O   0  0  0  0  0  0  0  0  0  0  0  0
    4.2537    0.3775    0.0000 O   0  0  0  0  0  0  0  0  0  0  0  0
    3.4155   -4.1772    0.0000 O   0  0  0  0  0  0  0  0  0  0  0  0
    2.5333    1.3975    0.0000 O   0  0  0  0  0  0  0  0  0  0  0  0
    2.5564    3.3974    0.0000 O   0  0  0  0  0  0  0  0  0  0  0  0
    2.5494   -2.6772    0.0000 O   0  0  0  0  0  0  0  0  0  0  0  0
    5.1717    4.8672    0.0000 O   0  0  0  0  0  0  0  0  0  0  0  0
    7.8306    0.1318    0.0000 C   0  0  1  0  0  0  0  0  0  0  0  0
    8.4184   -0.6772    0.0000 C   0  0  2  0  0  0  0  0  0  0  0  0
    6.8796   -0.1772    0.0000 C   0  0  2  0  0  0  0  0  0  0  0  0
    6.8796   -1.1772    0.0000 C   0  0  1  0  0  0  0  0  0  0  0  0
    7.8306   -1.4862    0.0000 C   0  0  2  0  0  0  0  0  0  0  0  0
    5.9856    0.3575    0.0000 C   0  0  1  0  0  0  0  0  0  0  0  0
    7.2428    0.9409    0.0000 C   0  0  0  0  0  0  0  0  0  0  0  0
    5.9856   -1.7118    0.0000 C   0  0  0  0  0  0  0  0  0  0  0  0
    5.0796   -1.1980    0.0000 C   0  0  0  0  0  0  0  0  0  0  0  0
    6.0135   -2.6772    0.0000 C   0  0  2  0  0  0  0  0  0  0  0  0
    6.0135   -3.6772    0.0000 C   0  0  1  0  0  0  0  0  0  0  0  0
    5.1370    1.8674    0.0000 C   0  0  2  0  0  0  0  0  0  0  0  0
    5.1475   -4.1772    0.0000 C   0  0  2  0  0  0  0  0  0  0  0  0
    4.2652    1.3775    0.0000 C   0  0  1  0  0  0  0  0  0  0  0  0
    4.2815   -2.6772    0.0000 C   0  0  1  0  0  0  0  0  0  0  0  0
    4.2815   -3.6772    0.0000 C   0  0  1  0  0  0  0  0  0  0  0  0
    3.4051    1.8874    0.0000 C   0  0  2  0  0  0  0  0  0  0  0  0
    4.2884    3.3773    0.0000 C   0  0  1  0  0  0  0  0  0  0  0  0
    3.4166    2.8874    0.0000 C   0  0  1  0  0  0  0  0  0  0  0  0
    3.4155   -2.1772    0.0000 C   0  0  0  0  0  0  0  0  0  0  0  0
    4.2999    4.3773    0.0000 C   0  0  0  0  0  0  0  0  0  0  0  0
    9.1545   -1.1023    0.0000 H   0  0  0  0  0  0  0  0  0  0  0  0
    6.9749    0.6675    0.0000 H   0  0  0  0  0  0  0  0  0  0  0  0
    8.4430   -1.5832    0.0000 H   0  0  0  0  0  0  0  0  0  0  0  0
    5.4517    0.6727    0.0000 H   0  0  0  0  0  0  0  0  0  0  0  0
    6.7288    1.2876    0.0000 H   0  0  0  0  0  0  0  0  0  0  0  0
    6.8122    0.4949    0.0000 H   0  0  0  0  0  0  0  0  0  0  0  0
    5.9928   -2.3318    0.0000 H   0  0  0  0  0  0  0  0  0  0  0  0
    7.7248   -2.8980    0.0000 H   0  0  0  0  0  0  0  0  0  0  0  0
    4.5438   -1.5100    0.0000 H   0  0  0  0  0  0  0  0  0  0  0  0
    6.0135   -2.0572    0.0000 H   0  0  0  0  0  0  0  0  0  0  0  0
    8.2662    1.9192    0.0000 H   0  0  0  0  0  0  0  0  0  0  0  0
    6.0135   -4.2972    0.0000 H   0  0  0  0  0  0  0  0  0  0  0  0
    5.1298    1.2474    0.0000 H   0  0  0  0  0  0  0  0  0  0  0  0
    4.6106   -4.4872    0.0000 H   0  0  0  0  0  0  0  0  0  0  0  0
    3.7248    1.0737    0.0000 H   0  0  0  0  0  0  0  0  0  0  0  0
    4.2815   -2.0572    0.0000 H   0  0  0  0  0  0  0  0  0  0  0  0
    3.7446   -3.3672    0.0000 H   0  0  0  0  0  0  0  0  0  0  0  0
    2.8718    2.2036    0.0000 H   0  0  0  0  0  0  0  0  0  0  0  0
    4.8289    3.6811    0.0000 H   0  0  0  0  0  0  0  0  0  0  0  0
    2.8761    2.5836    0.0000 H   0  0  0  0  0  0  0  0  0  0  0  0
    6.8796   -4.7972    0.0000 H   0  0  0  0  0  0  0  0  0  0  0  0
    3.8140   -1.7022    0.0000 H   0  0  0  0  0  0  0  0  0  0  0  0
    3.0169   -1.7022    0.0000 H   0  0  0  0  0  0  0  0  0  0  0  0
    4.6106   -5.4872    0.0000 H   0  0  0  0  0  0  0  0  0  0  0  0
    3.7132    0.0738    0.0000 H   0  0  0  0  0  0  0  0  0  0  0  0
    4.0946    4.9623    0.0000 H   0  0  0  0  0  0  0  0  0  0  0  0
    3.6882    4.2767    0.0000 H   0  0  0  0  0  0  0  0  0  0  0  0
    3.4155   -4.7972    0.0000 H   0  0  0  0  0  0  0  0  0  0  0  0
    2.0000    1.7137    0.0000 H   0  0  0  0  0  0  0  0  0  0  0  0
    2.5636    4.0173    0.0000 H   0  0  0  0  0  0  0  0  0  0  0  0
    2.0125   -2.3672    0.0000 H   0  0  0  0  0  0  0  0  0  0  0  0
    5.1789    5.4872    0.0000 H   0  0  0  0  0  0  0  0  0  0  0  0
  1 17  1  0  0  0  0
  1 18  1  0  0  0  0
 20  2  1  1  0  0  0
 26  2  1  1  0  0  0
 21  3  1  1  0  0  0
  3 45  1  0  0  0  0
  4 22  1  0  0  0  0
  4 25  1  0  0  0  0
 22  5  1  1  0  0  0
 28  5  1  1  0  0  0
  6 23  1  0  0  0  0
  6 48  1  0  0  0  0
  7 26  1  0  0  0  0
  7 31  1  0  0  0  0
  8 28  1  0  0  0  0
  8 34  1  0  0  0  0
 27  9  1  6  0  0  0
  9 58  1  0  0  0  0
 29 10  1  1  0  0  0
 10 61  1  0  0  0  0
 30 11  1  6  0  0  0
 11 62  1  0  0  0  0
 32 12  1  6  0  0  0
 12 65  1  0  0  0  0
 33 13  1  1  0  0  0
 13 66  1  0  0  0  0
 35 14  1  6  0  0  0
 14 67  1  0  0  0  0
 15 36  1  0  0  0  0
 15 68  1  0  0  0  0
 16 37  1  0  0  0  0
 16 69  1  0  0  0  0
 17 18  1  0  0  0  0
 17 19  1  0  0  0  0
 17 23  1  6  0  0  0
 18 21  1  0  0  0  0
 18 38  1  6  0  0  0
 19 20  1  0  0  0  0
 19 22  1  0  0  0  0
 19 39  1  1  0  0  0
 20 21  1  0  0  0  0
 20 24  1  0  0  0  0
 21 40  1  0  0  0  0
 22 41  1  0  0  0  0
 23 42  1  0  0  0  0
 23 43  1  0  0  0  0
 24 25  2  0  0  0  0
 24 44  1  0  0  0  0
 25 46  1  0  0  0  0
 26 27  1  0  0  0  0
 26 47  1  0  0  0  0
 27 29  1  0  0  0  0
 27 49  1  0  0  0  0
 28 30  1  0  0  0  0
 28 50  1  0  0  0  0
 29 32  1  0  0  0  0
 29 51  1  0  0  0  0
 30 33  1  0  0  0  0
 30 52  1  0  0  0  0
 31 32  1  0  0  0  0
 31 36  1  1  0  0  0
 31 53  1  0  0  0  0
 32 54  1  0  0  0  0
 33 35  1  0  0  0  0
 33 55  1  0  0  0  0
 34 35  1  0  0  0  0
 34 37  1  1  0  0  0
 34 56  1  0  0  0  0
 35 57  1  0  0  0  0
 36 59  1  0  0  0  0
 36 60  1  0  0  0  0
 37 63  1  0  0  0  0
 37 64  1  0  0  0  0
M  END
> <PUBCHEM_COMPOUND_CID>
101929007

> <PUBCHEM_COMPOUND_CANONICALIZED>
1

> <PUBCHEM_CACTVS_COMPLEXITY>
860

> <PUBCHEM_CACTVS_HBOND_ACCEPTOR>
16

> <PUBCHEM_CACTVS_HBOND_DONOR>
10

> <PUBCHEM_CACTVS_ROTATABLE_BOND>
7

> <PUBCHEM_CACTVS_SUBSKEYS>
AAADcfB4PgAAAAAAAAAAAAAAEgAAAYAAAAAkSJEAAAAAAEAAAAAAGgAACAAADVSwgAMACAAABgCAACBCAAAACAAgIAAIAAAAAAgRFAIAIAAiQAAFwAAHIAHA4DwOgAAAAAAAAAAAAAAAAAAAAYQADCAAAA==

> <PUBCHEM_IUPAC_OPENEYE_NAME>
(2S,3R,4S,5S,6R)-2-[[(1S,2S,4S,5R,6S,10S)-5-hydroxy-2-(hydroxymethyl)-6-[(2S,3R,4S,5S,6R)-3,4,5-trihydroxy-6-(hydroxymethyl)tetrahydropyran-2-yl]oxy-3,9-dioxatricyclo[4.4.0.02,4]dec-7-en-10-yl]oxy]-6-(hydroxymethyl)tetrahydropyran-3,4,5-triol

> <PUBCHEM_IUPAC_CAS_NAME>
(2S,3R,4S,5S,6R)-2-[[(1S,2S,4S,5R,6S,10S)-5-hydroxy-2-(hydroxymethyl)-6-[[(2S,3R,4S,5S,6R)-3,4,5-trihydroxy-6-(hydroxymethyl)-2-oxanyl]oxy]-3,9-dioxatricyclo[4.4.0.02,4]dec-7-en-10-yl]oxy]-6-(hydroxymethyl)oxane-3,4,5-triol

> <PUBCHEM_IUPAC_NAME_MARKUP>
(2<I>S</I>,3<I>R</I>,4<I>S</I>,5<I>S</I>,6<I>R</I>)-2-[[(1<I>S</I>,2<I>S</I>,4<I>S</I>,5<I>R</I>,6<I>S</I>,10<I>S</I>)-5-hydroxy-2-(hydroxymethyl)-6-[(2<I>S</I>,3<I>R</I>,4<I>S</I>,5<I>S</I>,6<I>R</I>)-3,4,5-trihydroxy-6-(hydroxymethyl)oxan-2-yl]oxy-3,9-dioxatricyclo[4.4.0.0<SUP>2,4</SUP>]dec-7-en-10-yl]oxy]-6-(hydroxymethyl)oxane-3,4,5-triol

> <PUBCHEM_IUPAC_NAME>
(2S,3R,4S,5S,6R)-2-[[(1S,2S,4S,5R,6S,10S)-5-hydroxy-2-(hydroxymethyl)-6-[(2S,3R,4S,5S,6R)-3,4,5-trihydroxy-6-(hydroxymethyl)oxan-2-yl]oxy-3,9-dioxatricyclo[4.4.0.02,4]dec-7-en-10-yl]oxy]-6-(hydroxymethyl)oxane-3,4,5-triol

> <PUBCHEM_IUPAC_SYSTEMATIC_NAME>
(2R,3S,4S,5R,6S)-2-(hydroxymethyl)-6-[[(1S,2S,4S,5R,6S,10S)-2-(hydroxymethyl)-6-[(2S,3R,4S,5S,6R)-6-(hydroxymethyl)-3,4,5-tris(oxidanyl)oxan-2-yl]oxy-5-oxidanyl-3,9-dioxatricyclo[4.4.0.02,4]dec-7-en-10-yl]oxy]oxane-3,4,5-triol

> <PUBCHEM_IUPAC_TRADITIONAL_NAME>
(2S,3R,4S,5S,6R)-2-[[(1S,2S,4S,5R,6S,10S)-5-hydroxy-2-methylol-6-[(2S,3R,4S,5S,6R)-3,4,5-trihydroxy-6-methylol-tetrahydropyran-2-yl]oxy-3,9-dioxatricyclo[4.4.0.02,4]dec-7-en-10-yl]oxy]-6-methylol-tetrahydropyran-3,4,5-triol

> <PUBCHEM_IUPAC_INCHI>
InChI=1S/C21H32O16/c22-3-6-8(25)10(27)12(29)17(33-6)35-19-14-20(1-2-32-19,15(31)16-21(14,5-24)36-16)37-18-13(30)11(28)9(26)7(4-23)34-18/h1-2,6-19,22-31H,3-5H2/t6-,7-,8-,9-,10+,11+,12-,13-,14+,15-,16+,17+,18+,19+,20+,21-/m1/s1

> <PUBCHEM_IUPAC_INCHIKEY>
FHLMLGHLRLFHDS-LIPZFPPXSA-N

> <PUBCHEM_XLOGP3_AA>
-5.9

> <PUBCHEM_EXACT_MASS>
540.16903493

> <PUBCHEM_MOLECULAR_FORMULA>
C21H32O16

> <PUBCHEM_MOLECULAR_WEIGHT>
540.5

> <PUBCHEM_OPENEYE_CAN_SMILES>
C1=COC(C2C1(C(C3C2(O3)CO)O)OC4C(C(C(C(O4)CO)O)O)O)OC5C(C(C(C(O5)CO)O)O)O

> <PUBCHEM_OPENEYE_ISO_SMILES>
C1=CO[C@H]([C@H]2[C@@]1([C@@H]([C@H]3[C@@]2(O3)CO)O)O[C@H]4[C@@H]([C@H]([C@@H]([C@H](O4)CO)O)O)O)O[C@H]5[C@@H]([C@H]([C@@H]([C@H](O5)CO)O)O)O

> <PUBCHEM_CACTVS_TPSA>
261

> <PUBCHEM_MONOISOTOPIC_WEIGHT>
540.16903493

> <PUBCHEM_TOTAL_CHARGE>
0

> <PUBCHEM_HEAVY_ATOM_COUNT>
37

> <PUBCHEM_ATOM_DEF_STEREO_COUNT>
16

> <PUBCHEM_ATOM_UDEF_STEREO_COUNT>
0

> <PUBCHEM_BOND_DEF_STEREO_COUNT>
0

> <PUBCHEM_BOND_UDEF_STEREO_COUNT>
0

> <PUBCHEM_ISOTOPIC_ATOM_COUNT>
0

> <PUBCHEM_COMPONENT_COUNT>
1

> <PUBCHEM_CACTVS_TAUTO_COUNT>
-1

> <PUBCHEM_COORDINATE_TYPE>
1
5
255

> <PUBCHEM_BONDANNOTATIONS>
29  10  5
30  11  6
32  12  6
33  13  5
35  14  6
17  23  6
18  38  6
19  39  5
20  2  5
26  2  5
21  3  5
31  36  5
34  37  5
22  5  5
28  5  5
27  9  6

$$$$
