 
  -OEChem-10192104212D

 76 78  0     1  0  0  0  0  0999 V2000
    7.1106    4.0258    0.0000 O   0  0  0  0  0  0  0  0  0  0  0  0
    7.1962   -0.1414    0.0000 O   0  0  0  0  0  0  0  0  0  0  0  0
    5.4890    1.5658    0.0000 O   0  0  0  0  0  0  0  0  0  0  0  0
   10.0729    3.9094    0.0000 O   0  0  0  0  0  0  0  0  0  0  0  0
    5.4641   -0.1414    0.0000 O   0  0  0  0  0  0  0  0  0  0  0  0
    5.8943    3.9728    0.0000 O   0  0  0  0  0  0  0  0  0  0  0  0
    7.1962   -2.1414    0.0000 O   0  0  0  0  0  0  0  0  0  0  0  0
   11.3984    1.9544    0.0000 O   0  0  0  0  0  0  0  0  0  0  0  0
    5.4641   -3.1414    0.0000 O   0  0  0  0  0  0  0  0  0  0  0  0
   10.4049    0.5356    0.0000 O   0  0  0  0  0  0  0  0  0  0  0  0
    3.7320   -2.1414    0.0000 O   0  0  0  0  0  0  0  0  0  0  0  0
    3.7320    0.8586    0.0000 O   0  0  0  0  0  0  0  0  0  0  0  0
    4.4890    3.2978    0.0000 O   0  0  0  0  0  0  0  0  0  0  0  0
   11.4917    2.9159    0.0000 O   0  0  0  0  0  0  0  0  0  0  0  0
    6.3301   -3.6414    0.0000 O   0  0  0  0  0  0  0  0  0  0  0  0
    3.7320   -3.1414    0.0000 O   0  0  0  0  0  0  0  0  0  0  0  0
    2.8660   -0.6414    0.0000 O   0  0  0  0  0  0  0  0  0  0  0  0
    2.0000    0.8586    0.0000 O   0  0  0  0  0  0  0  0  0  0  0  0
    8.1900    1.9753    0.0000 C   0  0  1  0  0  0  0  0  0  0  0  0
    7.1962    0.8586    0.0000 C   0  0  2  0  0  0  0  0  0  0  0  0
    8.0164    2.9601    0.0000 C   0  0  2  0  0  0  0  0  0  0  0  0
    9.6730    2.1054    0.0000 C   0  0  1  0  0  0  0  0  0  0  0  0
    6.4890    1.5658    0.0000 C   0  0  1  0  0  0  0  0  0  0  0  0
    9.4993    3.0902    0.0000 C   0  0  1  0  0  0  0  0  0  0  0  0
    6.5370    3.2066    0.0000 C   0  0  0  0  0  0  0  0  0  0  0  0
    6.3301   -0.6414    0.0000 C   0  0  2  0  0  0  0  0  0  0  0  0
   10.4921    1.5318    0.0000 C   0  0  0  0  0  0  0  0  0  0  0  0
    6.3301   -1.6414    0.0000 C   0  0  1  0  0  0  0  0  0  0  0  0
    5.4641   -2.1414    0.0000 C   0  0  2  0  0  0  0  0  0  0  0  0
    4.5981   -1.6414    0.0000 C   0  0  1  0  0  0  0  0  0  0  0  0
    4.5981   -0.6414    0.0000 C   0  0  1  0  0  0  0  0  0  0  0  0
    4.9890    2.4318    0.0000 C   0  0  0  0  0  0  0  0  0  0  0  0
   11.0691    3.8222    0.0000 C   0  0  0  0  0  0  0  0  0  0  0  0
    3.7320   -0.1414    0.0000 C   0  0  0  0  0  0  0  0  0  0  0  0
    3.9890    2.4318    0.0000 C   0  0  0  0  0  0  0  0  0  0  0  0
   11.6427    4.6414    0.0000 C   0  0  0  0  0  0  0  0  0  0  0  0
    7.1962   -3.1414    0.0000 C   0  0  0  0  0  0  0  0  0  0  0  0
    4.5981   -3.6414    0.0000 C   0  0  0  0  0  0  0  0  0  0  0  0
    2.8660   -1.6414    0.0000 C   0  0  0  0  0  0  0  0  0  0  0  0
    8.0622   -3.6414    0.0000 C   0  0  0  0  0  0  0  0  0  0  0  0
    4.5981   -4.6414    0.0000 C   0  0  0  0  0  0  0  0  0  0  0  0
    2.8660    1.3586    0.0000 C   0  0  0  0  0  0  0  0  0  0  0  0
    2.0000   -2.1414    0.0000 C   0  0  0  0  0  0  0  0  0  0  0  0
    2.8660    2.3586    0.0000 C   0  0  0  0  0  0  0  0  0  0  0  0
    8.3376    1.1382    0.0000 H   0  0  0  0  0  0  0  0  0  0  0  0
    7.7756    0.6381    0.0000 H   0  0  0  0  0  0  0  0  0  0  0  0
    7.8688    3.7972    0.0000 H   0  0  0  0  0  0  0  0  0  0  0  0
    9.5125    1.5065    0.0000 H   0  0  0  0  0  0  0  0  0  0  0  0
    6.2649    2.1438    0.0000 H   0  0  0  0  0  0  0  0  0  0  0  0
   10.1046    2.9560    0.0000 H   0  0  0  0  0  0  0  0  0  0  0  0
    6.3301   -0.0214    0.0000 H   0  0  0  0  0  0  0  0  0  0  0  0
    6.3301   -2.2614    0.0000 H   0  0  0  0  0  0  0  0  0  0  0  0
    4.9272   -2.4514    0.0000 H   0  0  0  0  0  0  0  0  0  0  0  0
    4.5981   -2.2614    0.0000 H   0  0  0  0  0  0  0  0  0  0  0  0
    4.5981   -0.0214    0.0000 H   0  0  0  0  0  0  0  0  0  0  0  0
    3.1215   -0.0337    0.0000 H   0  0  0  0  0  0  0  0  0  0  0  0
    3.5200   -0.7240    0.0000 H   0  0  0  0  0  0  0  0  0  0  0  0
   11.9063    1.5988    0.0000 H   0  0  0  0  0  0  0  0  0  0  0  0
    3.9890    3.0518    0.0000 H   0  0  0  0  0  0  0  0  0  0  0  0
    3.3690    2.4318    0.0000 H   0  0  0  0  0  0  0  0  0  0  0  0
    3.9890    1.8118    0.0000 H   0  0  0  0  0  0  0  0  0  0  0  0
   12.1505    4.2857    0.0000 H   0  0  0  0  0  0  0  0  0  0  0  0
   11.9983    5.1492    0.0000 H   0  0  0  0  0  0  0  0  0  0  0  0
   11.1348    4.9970    0.0000 H   0  0  0  0  0  0  0  0  0  0  0  0
    7.7522   -4.1783    0.0000 H   0  0  0  0  0  0  0  0  0  0  0  0
    8.5991   -3.9514    0.0000 H   0  0  0  0  0  0  0  0  0  0  0  0
    8.3722   -3.1044    0.0000 H   0  0  0  0  0  0  0  0  0  0  0  0
    3.9781   -4.6414    0.0000 H   0  0  0  0  0  0  0  0  0  0  0  0
    4.5981   -5.2614    0.0000 H   0  0  0  0  0  0  0  0  0  0  0  0
    5.2181   -4.6414    0.0000 H   0  0  0  0  0  0  0  0  0  0  0  0
    1.6900   -1.6044    0.0000 H   0  0  0  0  0  0  0  0  0  0  0  0
    1.4631   -2.4514    0.0000 H   0  0  0  0  0  0  0  0  0  0  0  0
    2.3100   -2.6783    0.0000 H   0  0  0  0  0  0  0  0  0  0  0  0
    3.4860    2.3586    0.0000 H   0  0  0  0  0  0  0  0  0  0  0  0
    2.8660    2.9786    0.0000 H   0  0  0  0  0  0  0  0  0  0  0  0
    2.2460    2.3586    0.0000 H   0  0  0  0  0  0  0  0  0  0  0  0
  1 21  1  0  0  0  0
  1 25  1  0  0  0  0
 20  2  1  1  0  0  0
 26  2  1  1  0  0  0
 23  3  1  6  0  0  0
  3 32  1  0  0  0  0
 24  4  1  6  0  0  0
  4 33  1  0  0  0  0
  5 26  1  0  0  0  0
  5 31  1  0  0  0  0
  6 25  2  0  0  0  0
 28  7  1  6  0  0  0
  7 37  1  0  0  0  0
  8 27  1  0  0  0  0
  8 58  1  0  0  0  0
 29  9  1  1  0  0  0
  9 38  1  0  0  0  0
 10 27  2  0  0  0  0
 30 11  1  6  0  0  0
 11 39  1  0  0  0  0
 12 34  1  0  0  0  0
 12 42  1  0  0  0  0
 13 32  2  0  0  0  0
 14 33  2  0  0  0  0
 15 37  2  0  0  0  0
 16 38  2  0  0  0  0
 17 39  2  0  0  0  0
 18 42  2  0  0  0  0
 19 20  1  0  0  0  0
 19 22  1  0  0  0  0
 19 25  1  0  0  0  0
 19 45  1  1  0  0  0
 20 23  1  0  0  0  0
 20 46  1  0  0  0  0
 21 23  1  0  0  0  0
 21 24  1  0  0  0  0
 21 47  1  6  0  0  0
 22 24  1  0  0  0  0
 22 27  1  1  0  0  0
 22 48  1  0  0  0  0
 23 49  1  0  0  0  0
 24 50  1  0  0  0  0
 26 28  1  0  0  0  0
 26 51  1  0  0  0  0
 28 29  1  0  0  0  0
 28 52  1  0  0  0  0
 29 30  1  0  0  0  0
 29 53  1  0  0  0  0
 30 31  1  0  0  0  0
 30 54  1  0  0  0  0
 31 34  1  1  0  0  0
 31 55  1  0  0  0  0
 32 35  1  0  0  0  0
 33 36  1  0  0  0  0
 34 56  1  0  0  0  0
 34 57  1  0  0  0  0
 35 59  1  0  0  0  0
 35 60  1  0  0  0  0
 35 61  1  0  0  0  0
 36 62  1  0  0  0  0
 36 63  1  0  0  0  0
 36 64  1  0  0  0  0
 37 40  1  0  0  0  0
 38 41  1  0  0  0  0
 39 43  1  0  0  0  0
 40 65  1  0  0  0  0
 40 66  1  0  0  0  0
 40 67  1  0  0  0  0
 41 68  1  0  0  0  0
 41 69  1  0  0  0  0
 41 70  1  0  0  0  0
 42 44  1  0  0  0  0
 43 71  1  0  0  0  0
 43 72  1  0  0  0  0
 43 73  1  0  0  0  0
 44 74  1  0  0  0  0
 44 75  1  0  0  0  0
 44 76  1  0  0  0  0
M  END
> <PUBCHEM_COMPOUND_CID>
11215812

> <PUBCHEM_COMPOUND_CANONICALIZED>
1

> <PUBCHEM_CACTVS_COMPLEXITY>
1200

> <PUBCHEM_CACTVS_HBOND_ACCEPTOR>
18

> <PUBCHEM_CACTVS_HBOND_DONOR>
1

> <PUBCHEM_CACTVS_ROTATABLE_BOND>
16

> <PUBCHEM_CACTVS_SUBSKEYS>
AAADcfB4PgAAAAAAAAAAAAAAAAAAAAAAAAA0SJEAAAAAAAAAAAAAGgAACAAADRSwgAMCCAAABgAIAACQCAAAAAAAAAAAAAEAAAARABYAAAAiQAAFIAAGAAHL7LzOgAAAAAAAAABCAAIQADCAAAAAAAAAAA==

> <PUBCHEM_IUPAC_OPENEYE_NAME>
(1S,4R,5S,6R,7S,8R)-6,7-diacetoxy-3-oxo-8-[(2R,3R,4S,5R,6R)-3,4,5-triacetoxy-6-(acetoxymethyl)tetrahydropyran-2-yl]oxy-2-oxabicyclo[2.2.2]octane-5-carboxylic acid

> <PUBCHEM_IUPAC_CAS_NAME>
(1S,4R,5S,6R,7S,8R)-6,7-diacetyloxy-3-oxo-8-[[(2R,3R,4S,5R,6R)-3,4,5-triacetyloxy-6-(acetyloxymethyl)-2-oxanyl]oxy]-2-oxabicyclo[2.2.2]octane-5-carboxylic acid

> <PUBCHEM_IUPAC_NAME_MARKUP>
(1<I>S</I>,4<I>R</I>,5<I>S</I>,6<I>R</I>,7<I>S</I>,8<I>R</I>)-6,7-diacetyloxy-3-oxo-8-[(2<I>R</I>,3<I>R</I>,4<I>S</I>,5<I>R</I>,6<I>R</I>)-3,4,5-triacetyloxy-6-(acetyloxymethyl)oxan-2-yl]oxy-2-oxabicyclo[2.2.2]octane-5-carboxylic acid

> <PUBCHEM_IUPAC_NAME>
(1S,4R,5S,6R,7S,8R)-6,7-diacetyloxy-3-oxo-8-[(2R,3R,4S,5R,6R)-3,4,5-triacetyloxy-6-(acetyloxymethyl)oxan-2-yl]oxy-2-oxabicyclo[2.2.2]octane-5-carboxylic acid

> <PUBCHEM_IUPAC_SYSTEMATIC_NAME>
(1S,4R,5S,6R,7S,8R)-6,7-diacetyloxy-3-oxidanylidene-8-[(2R,3R,4S,5R,6R)-3,4,5-triacetyloxy-6-(acetyloxymethyl)oxan-2-yl]oxy-2-oxabicyclo[2.2.2]octane-5-carboxylic acid

> <PUBCHEM_IUPAC_TRADITIONAL_NAME>
(1S,4R,5S,6R,7S,8R)-6,7-diacetoxy-3-keto-8-[(2R,3R,4S,5R,6R)-3,4,5-triacetoxy-6-(acetoxymethyl)tetrahydropyran-2-yl]oxy-2-oxabicyclo[2.2.2]octane-5-carboxylic acid

> <PUBCHEM_IUPAC_INCHI>
InChI=1S/C26H32O18/c1-8(27)36-7-14-17(37-9(2)28)20(39-11(4)30)23(41-13(6)32)26(42-14)44-19-16-15(24(33)34)18(38-10(3)29)22(43-25(16)35)21(19)40-12(5)31/h14-23,26H,7H2,1-6H3,(H,33,34)/t14-,15+,16-,17-,18-,19-,20+,21+,22+,23-,26+/m1/s1

> <PUBCHEM_IUPAC_INCHIKEY>
ZIZGJGDYICWEEP-OKEGKMLUSA-N

> <PUBCHEM_XLOGP3_AA>
-1.3

> <PUBCHEM_EXACT_MASS>
632.15886417

> <PUBCHEM_MOLECULAR_FORMULA>
C26H32O18

> <PUBCHEM_MOLECULAR_WEIGHT>
632.5

> <PUBCHEM_OPENEYE_CAN_SMILES>
CC(=O)OCC1C(C(C(C(O1)OC2C3C(C(C(C2OC(=O)C)OC3=O)OC(=O)C)C(=O)O)OC(=O)C)OC(=O)C)OC(=O)C

> <PUBCHEM_OPENEYE_ISO_SMILES>
CC(=O)OC[C@@H]1[C@H]([C@@H]([C@H]([C@@H](O1)O[C@@H]2[C@H]3[C@@H]([C@H]([C@@H]([C@H]2OC(=O)C)OC3=O)OC(=O)C)C(=O)O)OC(=O)C)OC(=O)C)OC(=O)C

> <PUBCHEM_CACTVS_TPSA>
240

> <PUBCHEM_MONOISOTOPIC_WEIGHT>
632.15886417

> <PUBCHEM_TOTAL_CHARGE>
0

> <PUBCHEM_HEAVY_ATOM_COUNT>
44

> <PUBCHEM_ATOM_DEF_STEREO_COUNT>
11

> <PUBCHEM_ATOM_UDEF_STEREO_COUNT>
0

> <PUBCHEM_BOND_DEF_STEREO_COUNT>
0

> <PUBCHEM_BOND_UDEF_STEREO_COUNT>
0

> <PUBCHEM_ISOTOPIC_ATOM_COUNT>
0

> <PUBCHEM_COMPONENT_COUNT>
1

> <PUBCHEM_CACTVS_TAUTO_COUNT>
-1

> <PUBCHEM_COORDINATE_TYPE>
1
5
255

> <PUBCHEM_BONDANNOTATIONS>
30  11  6
19  45  5
20  2  5
26  2  5
21  47  6
22  27  5
23  3  6
31  34  5
24  4  6
28  7  6
29  9  5

$$$$
