 
  -OEChem-10192104232D

 24 23  0     1  0  0  0  0  0999 V2000
    6.3301   -1.0950    0.0000 O   0  0  0  0  0  0  0  0  0  0  0  0
    8.0622   -0.0950    0.0000 O   0  0  0  0  0  0  0  0  0  0  0  0
    7.1962    1.4050    0.0000 O   0  0  0  0  0  0  0  0  0  0  0  0
    4.5981   -0.0950    0.0000 C   0  0  0  0  0  0  0  0  0  0  0  0
    3.7320    0.4050    0.0000 C   0  0  0  0  0  0  0  0  0  0  0  0
    5.4641    0.4050    0.0000 C   0  0  0  0  0  0  0  0  0  0  0  0
    2.8660   -0.0950    0.0000 C   0  0  0  0  0  0  0  0  0  0  0  0
    6.3301   -0.0950    0.0000 C   0  0  3  0  0  0  0  0  0  0  0  0
    2.0000    0.4050    0.0000 C   0  0  0  0  0  0  0  0  0  0  0  0
    7.1962    0.4050    0.0000 C   0  0  0  0  0  0  0  0  0  0  0  0
    4.1996   -0.5699    0.0000 H   0  0  0  0  0  0  0  0  0  0  0  0
    4.9966   -0.5699    0.0000 H   0  0  0  0  0  0  0  0  0  0  0  0
    5.8626    0.8799    0.0000 H   0  0  0  0  0  0  0  0  0  0  0  0
    5.0656    0.8799    0.0000 H   0  0  0  0  0  0  0  0  0  0  0  0
    4.1306    0.8799    0.0000 H   0  0  0  0  0  0  0  0  0  0  0  0
    3.3335    0.8799    0.0000 H   0  0  0  0  0  0  0  0  0  0  0  0
    2.4675   -0.5699    0.0000 H   0  0  0  0  0  0  0  0  0  0  0  0
    3.2646   -0.5699    0.0000 H   0  0  0  0  0  0  0  0  0  0  0  0
    7.0662   -0.5200    0.0000 H   0  0  0  0  0  0  0  0  0  0  0  0
    2.3100    0.9419    0.0000 H   0  0  0  0  0  0  0  0  0  0  0  0
    1.4631    0.7150    0.0000 H   0  0  0  0  0  0  0  0  0  0  0  0
    1.6900   -0.1319    0.0000 H   0  0  0  0  0  0  0  0  0  0  0  0
    5.7932   -1.4050    0.0000 H   0  0  0  0  0  0  0  0  0  0  0  0
    8.5991    0.2150    0.0000 H   0  0  0  0  0  0  0  0  0  0  0  0
  1  8  1  0  0  0  0
  1 23  1  0  0  0  0
  2 10  1  0  0  0  0
  2 24  1  0  0  0  0
  3 10  2  0  0  0  0
  4  5  1  0  0  0  0
  4  6  1  0  0  0  0
  4 11  1  0  0  0  0
  4 12  1  0  0  0  0
  5  7  1  0  0  0  0
  5 15  1  0  0  0  0
  5 16  1  0  0  0  0
  6  8  1  0  0  0  0
  6 13  1  0  0  0  0
  6 14  1  0  0  0  0
  7  9  1  0  0  0  0
  7 17  1  0  0  0  0
  7 18  1  0  0  0  0
  8 10  1  0  0  0  0
  8 19  1  0  0  0  0
  9 20  1  0  0  0  0
  9 21  1  0  0  0  0
  9 22  1  0  0  0  0
M  END
> <PUBCHEM_COMPOUND_CID>
2750949

> <PUBCHEM_COMPOUND_CANONICALIZED>
1

> <PUBCHEM_CACTVS_COMPLEXITY>
101

> <PUBCHEM_CACTVS_HBOND_ACCEPTOR>
3

> <PUBCHEM_CACTVS_HBOND_DONOR>
2

> <PUBCHEM_CACTVS_ROTATABLE_BOND>
5

> <PUBCHEM_CACTVS_SUBSKEYS>
AAADccBgMAAAAAAAAAAAAAAAAAAAAAAAAAAAAAAAAAAAAAAAAAAAGgAACAAACBSggAICCAAAAgAIAACQCAIAAAAAAAAAAAFAAAABEBIAAAAAQAAEAAABAAGIyCCAAAAAAAAAAAAAAAAAAAAAAAAAAAAAAA==

> <PUBCHEM_IUPAC_OPENEYE_NAME>
2-hydroxyheptanoic acid

> <PUBCHEM_IUPAC_CAS_NAME>
2-hydroxyheptanoic acid

> <PUBCHEM_IUPAC_NAME_MARKUP>
2-hydroxyheptanoic acid

> <PUBCHEM_IUPAC_NAME>
2-hydroxyheptanoic acid

> <PUBCHEM_IUPAC_SYSTEMATIC_NAME>
2-oxidanylheptanoic acid

> <PUBCHEM_IUPAC_TRADITIONAL_NAME>
2-hydroxyenanthic acid

> <PUBCHEM_IUPAC_INCHI>
InChI=1S/C7H14O3/c1-2-3-4-5-6(8)7(9)10/h6,8H,2-5H2,1H3,(H,9,10)

> <PUBCHEM_IUPAC_INCHIKEY>
RGMMREBHCYXQMA-UHFFFAOYSA-N

> <PUBCHEM_XLOGP3_AA>
1.5

> <PUBCHEM_EXACT_MASS>
146.094294304

> <PUBCHEM_MOLECULAR_FORMULA>
C7H14O3

> <PUBCHEM_MOLECULAR_WEIGHT>
146.18

> <PUBCHEM_OPENEYE_CAN_SMILES>
CCCCCC(C(=O)O)O

> <PUBCHEM_OPENEYE_ISO_SMILES>
CCCCCC(C(=O)O)O

> <PUBCHEM_CACTVS_TPSA>
57.5

> <PUBCHEM_MONOISOTOPIC_WEIGHT>
146.094294304

> <PUBCHEM_TOTAL_CHARGE>
0

> <PUBCHEM_HEAVY_ATOM_COUNT>
10

> <PUBCHEM_ATOM_DEF_STEREO_COUNT>
0

> <PUBCHEM_ATOM_UDEF_STEREO_COUNT>
1

> <PUBCHEM_BOND_DEF_STEREO_COUNT>
0

> <PUBCHEM_BOND_UDEF_STEREO_COUNT>
0

> <PUBCHEM_ISOTOPIC_ATOM_COUNT>
0

> <PUBCHEM_COMPONENT_COUNT>
1

> <PUBCHEM_CACTVS_TAUTO_COUNT>
1

> <PUBCHEM_COORDINATE_TYPE>
1
5
255

> <PUBCHEM_BONDANNOTATIONS>
8  19  3

$$$$
