 
  -OEChem-10192103462D

 56 64  0     0  0  0  0  0  0999 V2000
    7.0235   -3.3416    0.0000 O   0  0  0  0  0  0  0  0  0  0  0  0
    7.0235    4.6704    0.0000 O   0  0  0  0  0  0  0  0  0  0  0  0
    2.5302   -3.0236    0.0000 O   0  0  0  0  0  0  0  0  0  0  0  0
    6.1953   -4.9825    0.0000 O   0  0  0  0  0  0  0  0  0  0  0  0
    2.5826   -5.1148    0.0000 O   0  0  0  0  0  0  0  0  0  0  0  0
    4.4275   -6.1008    0.0000 O   0  0  0  0  0  0  0  0  0  0  0  0
    5.1928   -0.3356    0.0000 C   0  0  0  0  0  0  0  0  0  0  0  0
    5.1928    1.6644    0.0000 C   0  0  0  0  0  0  0  0  0  0  0  0
    4.3268    0.1644    0.0000 C   0  0  0  0  0  0  0  0  0  0  0  0
    6.0588    0.1644    0.0000 C   0  0  0  0  0  0  0  0  0  0  0  0
    5.2089   -1.3771    0.0000 C   0  0  0  0  0  0  0  0  0  0  0  0
    4.3268    1.1644    0.0000 C   0  0  0  0  0  0  0  0  0  0  0  0
    6.0588    1.1644    0.0000 C   0  0  0  0  0  0  0  0  0  0  0  0
    5.2089    2.7059    0.0000 C   0  0  0  0  0  0  0  0  0  0  0  0
    4.3108   -1.9049    0.0000 C   0  0  0  0  0  0  0  0  0  0  0  0
    6.0860   -1.8399    0.0000 C   0  0  0  0  0  0  0  0  0  0  0  0
    4.3108    3.2336    0.0000 C   0  0  0  0  0  0  0  0  0  0  0  0
    6.0860    3.1686    0.0000 C   0  0  0  0  0  0  0  0  0  0  0  0
    3.4168   -0.3425    0.0000 C   0  0  0  0  0  0  0  0  0  0  0  0
    4.3369   -2.9464    0.0000 C   0  0  0  0  0  0  0  0  0  0  0  0
    6.9183   -0.3304    0.0000 C   0  0  0  0  0  0  0  0  0  0  0  0
    3.4168    1.6712    0.0000 C   0  0  0  0  0  0  0  0  0  0  0  0
    6.9183    1.6592    0.0000 C   0  0  0  0  0  0  0  0  0  0  0  0
    3.4088   -1.3841    0.0000 C   0  0  0  0  0  0  0  0  0  0  0  0
    6.9317   -1.3220    0.0000 C   0  0  0  0  0  0  0  0  0  0  0  0
    5.2557   -3.4374    0.0000 C   0  0  0  0  0  0  0  0  0  0  0  0
    4.3369    4.2751    0.0000 C   0  0  0  0  0  0  0  0  0  0  0  0
    3.4088    2.7128    0.0000 C   0  0  0  0  0  0  0  0  0  0  0  0
    6.1362   -2.8805    0.0000 C   0  0  0  0  0  0  0  0  0  0  0  0
    6.9317    2.6508    0.0000 C   0  0  0  0  0  0  0  0  0  0  0  0
    6.1362    4.2092    0.0000 C   0  0  0  0  0  0  0  0  0  0  0  0
    5.2557    4.7662    0.0000 C   0  0  0  0  0  0  0  0  0  0  0  0
    3.4067   -3.5052    0.0000 C   0  0  0  0  0  0  0  0  0  0  0  0
    5.3080   -4.5214    0.0000 C   0  0  0  0  0  0  0  0  0  0  0  0
    3.4067    4.8339    0.0000 C   0  0  0  0  0  0  0  0  0  0  0  0
    5.3080    5.8501    0.0000 C   0  0  0  0  0  0  0  0  0  0  0  0
    3.4338   -4.5900    0.0000 C   0  0  0  0  0  0  0  0  0  0  0  0
    4.3909   -5.1015    0.0000 C   0  0  0  0  0  0  0  0  0  0  0  0
    3.4338    5.9188    0.0000 C   0  0  0  0  0  0  0  0  0  0  0  0
    4.3909    6.4303    0.0000 C   0  0  0  0  0  0  0  0  0  0  0  0
    2.8835   -0.0263    0.0000 H   0  0  0  0  0  0  0  0  0  0  0  0
    7.4529   -0.0164    0.0000 H   0  0  0  0  0  0  0  0  0  0  0  0
    2.8835    1.3550    0.0000 H   0  0  0  0  0  0  0  0  0  0  0  0
    7.4529    1.3452    0.0000 H   0  0  0  0  0  0  0  0  0  0  0  0
    2.8706   -1.6920    0.0000 H   0  0  0  0  0  0  0  0  0  0  0  0
    7.4747   -1.6214    0.0000 H   0  0  0  0  0  0  0  0  0  0  0  0
    2.8706    3.0208    0.0000 H   0  0  0  0  0  0  0  0  0  0  0  0
    7.4747    2.9501    0.0000 H   0  0  0  0  0  0  0  0  0  0  0  0
    2.8633    4.5354    0.0000 H   0  0  0  0  0  0  0  0  0  0  0  0
    5.8581    6.1360    0.0000 H   0  0  0  0  0  0  0  0  0  0  0  0
    2.9061    6.2441    0.0000 H   0  0  0  0  0  0  0  0  0  0  0  0
    4.4136    7.0499    0.0000 H   0  0  0  0  0  0  0  0  0  0  0  0
    2.0000   -3.3449    0.0000 H   0  0  0  0  0  0  0  0  0  0  0  0
    6.2228   -5.6019    0.0000 H   0  0  0  0  0  0  0  0  0  0  0  0
    2.6005   -5.7345    0.0000 H   0  0  0  0  0  0  0  0  0  0  0  0
    3.9022   -6.4303    0.0000 H   0  0  0  0  0  0  0  0  0  0  0  0
  1 29  2  0  0  0  0
  2 31  2  0  0  0  0
  3 33  1  0  0  0  0
  3 53  1  0  0  0  0
  4 34  1  0  0  0  0
  4 54  1  0  0  0  0
  5 37  1  0  0  0  0
  5 55  1  0  0  0  0
  6 38  1  0  0  0  0
  6 56  1  0  0  0  0
  7  9  2  0  0  0  0
  7 10  1  0  0  0  0
  7 11  1  0  0  0  0
  8 12  2  0  0  0  0
  8 13  1  0  0  0  0
  8 14  1  0  0  0  0
  9 12  1  0  0  0  0
  9 19  1  0  0  0  0
 10 13  1  0  0  0  0
 10 21  2  0  0  0  0
 11 15  2  0  0  0  0
 11 16  1  0  0  0  0
 12 22  1  0  0  0  0
 13 23  2  0  0  0  0
 14 17  2  0  0  0  0
 14 18  1  0  0  0  0
 15 20  1  0  0  0  0
 15 24  1  0  0  0  0
 16 25  2  0  0  0  0
 16 29  1  0  0  0  0
 17 27  1  0  0  0  0
 17 28  1  0  0  0  0
 18 30  2  0  0  0  0
 18 31  1  0  0  0  0
 19 24  2  0  0  0  0
 19 41  1  0  0  0  0
 20 26  2  0  0  0  0
 20 33  1  0  0  0  0
 21 25  1  0  0  0  0
 21 42  1  0  0  0  0
 22 28  2  0  0  0  0
 22 43  1  0  0  0  0
 23 30  1  0  0  0  0
 23 44  1  0  0  0  0
 24 45  1  0  0  0  0
 25 46  1  0  0  0  0
 26 29  1  0  0  0  0
 26 34  1  0  0  0  0
 27 32  1  0  0  0  0
 27 35  2  0  0  0  0
 28 47  1  0  0  0  0
 30 48  1  0  0  0  0
 31 32  1  0  0  0  0
 32 36  2  0  0  0  0
 33 37  2  0  0  0  0
 34 38  2  0  0  0  0
 35 39  1  0  0  0  0
 35 49  1  0  0  0  0
 36 40  1  0  0  0  0
 36 50  1  0  0  0  0
 37 38  1  0  0  0  0
 39 40  2  0  0  0  0
 39 51  1  0  0  0  0
 40 52  1  0  0  0  0
M  END
> <PUBCHEM_COMPOUND_CID>
20437147

> <PUBCHEM_COMPOUND_CANONICALIZED>
1

> <PUBCHEM_CACTVS_COMPLEXITY>
1090

> <PUBCHEM_CACTVS_HBOND_ACCEPTOR>
6

> <PUBCHEM_CACTVS_HBOND_DONOR>
4

> <PUBCHEM_CACTVS_ROTATABLE_BOND>
0

> <PUBCHEM_CACTVS_SUBSKEYS>
AAADceB8OAAAAAAAAAAAAAAAAAAAAAAAAAAwYMGDAAAAAADBVAAAGgAACAAADASAmAAwBsAAAgCIAqBSAAACAAAkIAAIiAEEiMgJJzaCFRKAcUEl4BUJmYfK7PTO4QADCAAYQADCAAYQADCAAAAAAAAAAA==

> <PUBCHEM_IUPAC_OPENEYE_NAME>
7,8,9,10-tetrahydroxynonacyclo[18.10.2.22,5.03,16.04,13.06,11.017,31.022,27.028,32]tetratriaconta-1(31),2,4,6(11),7,9,13,15,17,19,22,24,26,28(32),29,33-hexadecaene-12,21-dione

> <PUBCHEM_IUPAC_CAS_NAME>
7,8,9,10-tetrahydroxynonacyclo[18.10.2.22,5.03,16.04,13.06,11.017,31.022,27.028,32]tetratriaconta-1(31),2,4,6(11),7,9,13,15,17,19,22,24,26,28(32),29,33-hexadecaene-12,21-dione

> <PUBCHEM_IUPAC_NAME_MARKUP>
7,8,9,10-tetrahydroxynonacyclo[18.10.2.2<SUP>2,5</SUP>.0<SUP>3,16</SUP>.0<SUP>4,13</SUP>.0<SUP>6,11</SUP>.0<SUP>17,31</SUP>.0<SUP>22,27</SUP>.0<SUP>28,32</SUP>]tetratriaconta-1(31),2,4,6(11),7,9,13,15,17,19,22,24,26,28(32),29,33-hexadecaene-12,21-dione

> <PUBCHEM_IUPAC_NAME>
7,8,9,10-tetrahydroxynonacyclo[18.10.2.22,5.03,16.04,13.06,11.017,31.022,27.028,32]tetratriaconta-1(31),2,4,6(11),7,9,13,15,17,19,22,24,26,28(32),29,33-hexadecaene-12,21-dione

> <PUBCHEM_IUPAC_SYSTEMATIC_NAME>
7,8,9,10-tetrakis(oxidanyl)nonacyclo[18.10.2.22,5.03,16.04,13.06,11.017,31.022,27.028,32]tetratriaconta-1(31),2,4,6(11),7,9,13,15,17,19,22,24,26,28(32),29,33-hexadecaene-12,21-dione

> <PUBCHEM_IUPAC_TRADITIONAL_NAME>
1,2,3,4-tetrahydroxyviolanthrone

> <PUBCHEM_IUPAC_INCHI>
InChI=1S/C34H16O6/c35-29-19-4-2-1-3-13(19)14-5-6-15-16-7-10-20-26-22(30(36)28-27(20)31(37)33(39)34(40)32(28)38)12-9-18(24(16)26)17-8-11-21(29)25(14)23(15)17/h1-12,37-40H

> <PUBCHEM_IUPAC_INCHIKEY>
ZJTHDYJGULEGHH-UHFFFAOYSA-N

> <PUBCHEM_XLOGP3_AA>
7.2

> <PUBCHEM_EXACT_MASS>
520.09468823

> <PUBCHEM_MOLECULAR_FORMULA>
C34H16O6

> <PUBCHEM_MOLECULAR_WEIGHT>
520.5

> <PUBCHEM_OPENEYE_CAN_SMILES>
C1=CC=C2C(=C1)C3=C4C(=CC=C5C4=C(C=C3)C6=C7C5=CC=C8C7=C(C=C6)C9=C(C8=O)C(=C(C(=C9O)O)O)O)C2=O

> <PUBCHEM_OPENEYE_ISO_SMILES>
C1=CC=C2C(=C1)C3=C4C(=CC=C5C4=C(C=C3)C6=C7C5=CC=C8C7=C(C=C6)C9=C(C8=O)C(=C(C(=C9O)O)O)O)C2=O

> <PUBCHEM_CACTVS_TPSA>
115

> <PUBCHEM_MONOISOTOPIC_WEIGHT>
520.09468823

> <PUBCHEM_TOTAL_CHARGE>
0

> <PUBCHEM_HEAVY_ATOM_COUNT>
40

> <PUBCHEM_ATOM_DEF_STEREO_COUNT>
0

> <PUBCHEM_ATOM_UDEF_STEREO_COUNT>
0

> <PUBCHEM_BOND_DEF_STEREO_COUNT>
0

> <PUBCHEM_BOND_UDEF_STEREO_COUNT>
0

> <PUBCHEM_ISOTOPIC_ATOM_COUNT>
0

> <PUBCHEM_COMPONENT_COUNT>
1

> <PUBCHEM_CACTVS_TAUTO_COUNT>
-1

> <PUBCHEM_COORDINATE_TYPE>
1
5
255

> <PUBCHEM_BONDANNOTATIONS>
10  13  8
10  21  8
11  15  8
11  16  8
12  22  8
13  23  8
14  17  8
14  18  8
15  24  8
16  25  8
17  28  8
18  30  8
19  24  8
20  26  8
20  33  8
21  25  8
22  28  8
23  30  8
26  34  8
27  32  8
27  35  8
32  36  8
33  37  8
34  38  8
35  39  8
36  40  8
37  38  8
39  40  8
7  10  8
7  11  8
7  9  8
8  12  8
8  13  8
8  14  8
9  12  8
9  19  8

$$$$
