 
  -OEChem-10192103532D

 51 53  0     1  0  0  0  0  0999 V2000
    6.0010    1.2134    0.0000 O   0  0  0  0  0  0  0  0  0  0  0  0
    7.7331    3.2134    0.0000 O   0  0  0  0  0  0  0  0  0  0  0  0
    9.4893    0.3223    0.0000 O   0  0  0  0  0  0  0  0  0  0  0  0
    6.8671   -0.2866    0.0000 O   0  0  0  0  0  0  0  0  0  0  0  0
    8.9900    3.4687    0.0000 O   0  0  0  0  0  0  0  0  0  0  0  0
    5.1350   -0.2866    0.0000 O   0  0  0  0  0  0  0  0  0  0  0  0
    6.8671   -2.2866    0.0000 O   0  0  0  0  0  0  0  0  0  0  0  0
    5.1350   -3.2866    0.0000 O   0  0  0  0  0  0  0  0  0  0  0  0
    3.4030   -2.2866    0.0000 O   0  0  0  0  0  0  0  0  0  0  0  0
    2.5369   -0.7866    0.0000 O   0  0  0  0  0  0  0  0  0  0  0  0
    7.7331    1.2134    0.0000 C   0  0  1  0  0  0  0  0  0  0  0  0
    7.7331    2.2134    0.0000 C   0  0  1  0  0  0  0  0  0  0  0  0
    8.6793    0.9087    0.0000 C   0  0  2  0  0  0  0  0  0  0  0  0
    8.6793    2.5182    0.0000 C   0  0  1  0  0  0  0  0  0  0  0  0
    9.2629    1.7134    0.0000 C   0  0  0  0  0  0  0  0  0  0  0  0
    6.8671    0.7134    0.0000 C   0  0  1  0  0  0  0  0  0  0  0  0
    6.8671    2.7134    0.0000 C   0  0  0  0  0  0  0  0  0  0  0  0
    6.0010    2.2134    0.0000 C   0  0  0  0  0  0  0  0  0  0  0  0
    8.3719   -0.0429    0.0000 C   0  0  0  0  0  0  0  0  0  0  0  0
    6.0010   -0.7866    0.0000 C   0  0  2  0  0  0  0  0  0  0  0  0
    6.0010   -1.7866    0.0000 C   0  0  1  0  0  0  0  0  0  0  0  0
    5.1350   -2.2866    0.0000 C   0  0  2  0  0  0  0  0  0  0  0  0
    4.2690   -1.7866    0.0000 C   0  0  1  0  0  0  0  0  0  0  0  0
    4.2690   -0.7866    0.0000 C   0  0  1  0  0  0  0  0  0  0  0  0
    3.4030   -0.2866    0.0000 C   0  0  0  0  0  0  0  0  0  0  0  0
    7.8230    0.3682    0.0000 H   0  0  0  0  0  0  0  0  0  0  0  0
    8.2418    2.9575    0.0000 H   0  0  0  0  0  0  0  0  0  0  0  0
    9.7238    1.2987    0.0000 H   0  0  0  0  0  0  0  0  0  0  0  0
    9.7238    2.1282    0.0000 H   0  0  0  0  0  0  0  0  0  0  0  0
    7.4040    0.4034    0.0000 H   0  0  0  0  0  0  0  0  0  0  0  0
    7.2656    3.1884    0.0000 H   0  0  0  0  0  0  0  0  0  0  0  0
    6.4685    3.1884    0.0000 H   0  0  0  0  0  0  0  0  0  0  0  0
    5.7890    2.7961    0.0000 H   0  0  0  0  0  0  0  0  0  0  0  0
    5.3905    2.1058    0.0000 H   0  0  0  0  0  0  0  0  0  0  0  0
    7.7820    0.1477    0.0000 H   0  0  0  0  0  0  0  0  0  0  0  0
    8.1814   -0.6329    0.0000 H   0  0  0  0  0  0  0  0  0  0  0  0
    8.9619   -0.2334    0.0000 H   0  0  0  0  0  0  0  0  0  0  0  0
    7.1962    3.5234    0.0000 H   0  0  0  0  0  0  0  0  0  0  0  0
   10.0553    0.5755    0.0000 H   0  0  0  0  0  0  0  0  0  0  0  0
    9.5966    3.5966    0.0000 H   0  0  0  0  0  0  0  0  0  0  0  0
    6.0010   -0.1666    0.0000 H   0  0  0  0  0  0  0  0  0  0  0  0
    6.0010   -2.4066    0.0000 H   0  0  0  0  0  0  0  0  0  0  0  0
    4.5981   -2.5966    0.0000 H   0  0  0  0  0  0  0  0  0  0  0  0
    4.2690   -2.4066    0.0000 H   0  0  0  0  0  0  0  0  0  0  0  0
    4.2690   -0.1666    0.0000 H   0  0  0  0  0  0  0  0  0  0  0  0
    3.8015    0.1884    0.0000 H   0  0  0  0  0  0  0  0  0  0  0  0
    3.0044    0.1884    0.0000 H   0  0  0  0  0  0  0  0  0  0  0  0
    6.8671   -2.9066    0.0000 H   0  0  0  0  0  0  0  0  0  0  0  0
    4.5981   -3.5966    0.0000 H   0  0  0  0  0  0  0  0  0  0  0  0
    3.4030   -2.9066    0.0000 H   0  0  0  0  0  0  0  0  0  0  0  0
    2.0000   -0.4766    0.0000 H   0  0  0  0  0  0  0  0  0  0  0  0
  1 16  1  0  0  0  0
  1 18  1  0  0  0  0
 12  2  1  6  0  0  0
  2 38  1  0  0  0  0
 13  3  1  6  0  0  0
  3 39  1  0  0  0  0
 16  4  1  6  0  0  0
 20  4  1  1  0  0  0
 14  5  1  6  0  0  0
  5 40  1  0  0  0  0
  6 20  1  0  0  0  0
  6 24  1  0  0  0  0
 21  7  1  6  0  0  0
  7 48  1  0  0  0  0
 22  8  1  1  0  0  0
  8 49  1  0  0  0  0
 23  9  1  6  0  0  0
  9 50  1  0  0  0  0
 10 25  1  0  0  0  0
 10 51  1  0  0  0  0
 11 12  1  0  0  0  0
 11 13  1  0  0  0  0
 11 16  1  0  0  0  0
 11 26  1  6  0  0  0
 12 14  1  0  0  0  0
 12 17  1  0  0  0  0
 13 15  1  0  0  0  0
 13 19  1  0  0  0  0
 14 15  1  0  0  0  0
 14 27  1  0  0  0  0
 15 28  1  0  0  0  0
 15 29  1  0  0  0  0
 16 30  1  0  0  0  0
 17 18  1  0  0  0  0
 17 31  1  0  0  0  0
 17 32  1  0  0  0  0
 18 33  1  0  0  0  0
 18 34  1  0  0  0  0
 19 35  1  0  0  0  0
 19 36  1  0  0  0  0
 19 37  1  0  0  0  0
 20 21  1  0  0  0  0
 20 41  1  0  0  0  0
 21 22  1  0  0  0  0
 21 42  1  0  0  0  0
 22 23  1  0  0  0  0
 22 43  1  0  0  0  0
 23 24  1  0  0  0  0
 23 44  1  0  0  0  0
 24 25  1  1  0  0  0
 24 45  1  0  0  0  0
 25 46  1  0  0  0  0
 25 47  1  0  0  0  0
M  END
> <PUBCHEM_COMPOUND_CID>
101596950

> <PUBCHEM_COMPOUND_CANONICALIZED>
1

> <PUBCHEM_CACTVS_COMPLEXITY>
491

> <PUBCHEM_CACTVS_HBOND_ACCEPTOR>
10

> <PUBCHEM_CACTVS_HBOND_DONOR>
7

> <PUBCHEM_CACTVS_ROTATABLE_BOND>
3

> <PUBCHEM_CACTVS_SUBSKEYS>
AAADceBwPAAAAAAAAAAAAAAAAAAAAYAAAAAkSAAAAAAAAEgAAAAAGgAACAAADVSwgAMCCAAABgAAAAAAAAAAAAAAAAAAAAAAAAAREAIAAAAiQAAFAAAHAAHA4PwOgAAAAAAAAAAAAAAAAAAAAYQADCAAAA==

> <PUBCHEM_IUPAC_OPENEYE_NAME>
(1S,4aS,5R,7S,7aR)-7-methyl-1-[(2S,3R,4S,5S,6R)-3,4,5-trihydroxy-6-(hydroxymethyl)tetrahydropyran-2-yl]oxy-1,3,4,5,6,7a-hexahydrocyclopenta[c]pyran-4a,5,7-triol

> <PUBCHEM_IUPAC_CAS_NAME>
(1S,4aS,5R,7S,7aR)-7-methyl-1-[[(2S,3R,4S,5S,6R)-3,4,5-trihydroxy-6-(hydroxymethyl)-2-oxanyl]oxy]-1,3,4,5,6,7a-hexahydrocyclopenta[c]pyran-4a,5,7-triol

> <PUBCHEM_IUPAC_NAME_MARKUP>
(1<I>S</I>,4<I>a</I><I>S</I>,5<I>R</I>,7<I>S</I>,7<I>a</I><I>R</I>)-7-methyl-1-[(2<I>S</I>,3<I>R</I>,4<I>S</I>,5<I>S</I>,6<I>R</I>)-3,4,5-trihydroxy-6-(hydroxymethyl)oxan-2-yl]oxy-1,3,4,5,6,7<I>a</I>-hexahydrocyclopenta[c]pyran-4<I>a</I>,5,7-triol

> <PUBCHEM_IUPAC_NAME>
(1S,4aS,5R,7S,7aR)-7-methyl-1-[(2S,3R,4S,5S,6R)-3,4,5-trihydroxy-6-(hydroxymethyl)oxan-2-yl]oxy-1,3,4,5,6,7a-hexahydrocyclopenta[c]pyran-4a,5,7-triol

> <PUBCHEM_IUPAC_SYSTEMATIC_NAME>
(1S,4aS,5R,7S,7aR)-1-[(2S,3R,4S,5S,6R)-6-(hydroxymethyl)-3,4,5-tris(oxidanyl)oxan-2-yl]oxy-7-methyl-1,3,4,5,6,7a-hexahydrocyclopenta[c]pyran-4a,5,7-triol

> <PUBCHEM_IUPAC_TRADITIONAL_NAME>
(1S,4aS,5R,7S,7aR)-7-methyl-1-[(2S,3R,4S,5S,6R)-3,4,5-trihydroxy-6-methylol-tetrahydropyran-2-yl]oxy-1,3,4,5,6,7a-hexahydrocyclopenta[c]pyran-4a,5,7-triol

> <PUBCHEM_IUPAC_INCHI>
InChI=1S/C15H26O10/c1-14(21)4-7(17)15(22)2-3-23-13(11(14)15)25-12-10(20)9(19)8(18)6(5-16)24-12/h6-13,16-22H,2-5H2,1H3/t6-,7-,8-,9+,10-,11-,12+,13+,14+,15-/m1/s1

> <PUBCHEM_IUPAC_INCHIKEY>
WAIONAXVFXYFNS-YYDKPPGPSA-N

> <PUBCHEM_XLOGP3_AA>
-3.4

> <PUBCHEM_EXACT_MASS>
366.15259702

> <PUBCHEM_MOLECULAR_FORMULA>
C15H26O10

> <PUBCHEM_MOLECULAR_WEIGHT>
366.36

> <PUBCHEM_OPENEYE_CAN_SMILES>
CC1(CC(C2(C1C(OCC2)OC3C(C(C(C(O3)CO)O)O)O)O)O)O

> <PUBCHEM_OPENEYE_ISO_SMILES>
C[C@@]1(C[C@H]([C@]2([C@@H]1[C@@H](OCC2)O[C@H]3[C@@H]([C@H]([C@@H]([C@H](O3)CO)O)O)O)O)O)O

> <PUBCHEM_CACTVS_TPSA>
169

> <PUBCHEM_MONOISOTOPIC_WEIGHT>
366.15259702

> <PUBCHEM_TOTAL_CHARGE>
0

> <PUBCHEM_HEAVY_ATOM_COUNT>
25

> <PUBCHEM_ATOM_DEF_STEREO_COUNT>
10

> <PUBCHEM_ATOM_UDEF_STEREO_COUNT>
0

> <PUBCHEM_BOND_DEF_STEREO_COUNT>
0

> <PUBCHEM_BOND_UDEF_STEREO_COUNT>
0

> <PUBCHEM_ISOTOPIC_ATOM_COUNT>
0

> <PUBCHEM_COMPONENT_COUNT>
1

> <PUBCHEM_CACTVS_TAUTO_COUNT>
-1

> <PUBCHEM_COORDINATE_TYPE>
1
5
255

> <PUBCHEM_BONDANNOTATIONS>
11  26  6
12  2  6
24  25  5
13  3  6
16  4  6
20  4  5
14  5  6
21  7  6
22  8  5
23  9  6

$$$$
