 
  -OEChem-10192104102D

 22 21  0     1  0  0  0  0  0999 V2000
    4.5981   -1.8450    0.0000 O   0  0  0  0  0  0  0  0  0  0  0  0
    8.0622    2.1550    0.0000 O   0  0  0  0  0  0  0  0  0  0  0  0
    3.7320   -0.3450    0.0000 C   0  0  0  0  0  0  0  0  0  0  0  0
    2.8660   -0.8450    0.0000 C   0  0  0  0  0  0  0  0  0  0  0  0
    4.5981   -0.8450    0.0000 C   0  0  3  0  0  0  0  0  0  0  0  0
    2.0000   -0.3450    0.0000 C   0  0  0  0  0  0  0  0  0  0  0  0
    5.4641   -0.3450    0.0000 C   0  0  0  0  0  0  0  0  0  0  0  0
    6.3301    0.1550    0.0000 C   0  0  0  0  0  0  0  0  0  0  0  0
    7.1962    0.6550    0.0000 C   0  0  0  0  0  0  0  0  0  0  0  0
    7.1962    1.6550    0.0000 C   0  0  0  0  0  0  0  0  0  0  0  0
    4.1306    0.1299    0.0000 H   0  0  0  0  0  0  0  0  0  0  0  0
    3.3335    0.1299    0.0000 H   0  0  0  0  0  0  0  0  0  0  0  0
    2.4675   -1.3200    0.0000 H   0  0  0  0  0  0  0  0  0  0  0  0
    3.2646   -1.3200    0.0000 H   0  0  0  0  0  0  0  0  0  0  0  0
    5.1350   -1.1550    0.0000 H   0  0  0  0  0  0  0  0  0  0  0  0
    2.3100    0.1919    0.0000 H   0  0  0  0  0  0  0  0  0  0  0  0
    1.4631   -0.0350    0.0000 H   0  0  0  0  0  0  0  0  0  0  0  0
    1.6900   -0.8819    0.0000 H   0  0  0  0  0  0  0  0  0  0  0  0
    5.1350   -2.1550    0.0000 H   0  0  0  0  0  0  0  0  0  0  0  0
    7.4082    0.0724    0.0000 H   0  0  0  0  0  0  0  0  0  0  0  0
    7.8067    0.7627    0.0000 H   0  0  0  0  0  0  0  0  0  0  0  0
    6.6592    1.9650    0.0000 H   0  0  0  0  0  0  0  0  0  0  0  0
  1  5  1  0  0  0  0
  1 19  1  0  0  0  0
  2 10  2  0  0  0  0
  3  4  1  0  0  0  0
  3  5  1  0  0  0  0
  3 11  1  0  0  0  0
  3 12  1  0  0  0  0
  4  6  1  0  0  0  0
  4 13  1  0  0  0  0
  4 14  1  0  0  0  0
  5  7  1  0  0  0  0
  5 15  1  0  0  0  0
  6 16  1  0  0  0  0
  6 17  1  0  0  0  0
  6 18  1  0  0  0  0
  7  8  3  0  0  0  0
  8  9  1  0  0  0  0
  9 10  1  0  0  0  0
  9 20  1  0  0  0  0
  9 21  1  0  0  0  0
 10 22  1  0  0  0  0
M  END
> <PUBCHEM_COMPOUND_CID>
130025123

> <PUBCHEM_COMPOUND_CANONICALIZED>
1

> <PUBCHEM_CACTVS_COMPLEXITY>
149

> <PUBCHEM_CACTVS_HBOND_ACCEPTOR>
2

> <PUBCHEM_CACTVS_HBOND_DONOR>
1

> <PUBCHEM_CACTVS_ROTATABLE_BOND>
3

> <PUBCHEM_CACTVS_SUBSKEYS>
AAADccBwMAAAAAAAAAAAAAAAAAAAAAAAAAAAAAAAAAAAAAAAAAAAGgAACAAACBSggAICAAAAAgBIEAgQgAgAAAAAAAAAAAEAAAAAEAIAAAAAQAAEAAAAAAAAAAAAAAAAAAAAAAAAAAAAAAAAAAAAAAAAAA==

> <PUBCHEM_IUPAC_OPENEYE_NAME>
5-hydroxyoct-3-ynal

> <PUBCHEM_IUPAC_CAS_NAME>
5-hydroxy-3-octynal

> <PUBCHEM_IUPAC_NAME_MARKUP>
5-hydroxyoct-3-ynal

> <PUBCHEM_IUPAC_NAME>
5-hydroxyoct-3-ynal

> <PUBCHEM_IUPAC_SYSTEMATIC_NAME>
5-oxidanyloct-3-ynal

> <PUBCHEM_IUPAC_TRADITIONAL_NAME>
5-hydroxyoct-3-ynal

> <PUBCHEM_IUPAC_INCHI>
InChI=1S/C8H12O2/c1-2-5-8(10)6-3-4-7-9/h7-8,10H,2,4-5H2,1H3

> <PUBCHEM_IUPAC_INCHIKEY>
ZITLIYYMJKDYOH-UHFFFAOYSA-N

> <PUBCHEM_XLOGP3_AA>
0.5

> <PUBCHEM_EXACT_MASS>
140.083729621

> <PUBCHEM_MOLECULAR_FORMULA>
C8H12O2

> <PUBCHEM_MOLECULAR_WEIGHT>
140.18

> <PUBCHEM_OPENEYE_CAN_SMILES>
CCCC(C#CCC=O)O

> <PUBCHEM_OPENEYE_ISO_SMILES>
CCCC(C#CCC=O)O

> <PUBCHEM_CACTVS_TPSA>
37.3

> <PUBCHEM_MONOISOTOPIC_WEIGHT>
140.083729621

> <PUBCHEM_TOTAL_CHARGE>
0

> <PUBCHEM_HEAVY_ATOM_COUNT>
10

> <PUBCHEM_ATOM_DEF_STEREO_COUNT>
0

> <PUBCHEM_ATOM_UDEF_STEREO_COUNT>
1

> <PUBCHEM_BOND_DEF_STEREO_COUNT>
0

> <PUBCHEM_BOND_UDEF_STEREO_COUNT>
0

> <PUBCHEM_ISOTOPIC_ATOM_COUNT>
0

> <PUBCHEM_COMPONENT_COUNT>
1

> <PUBCHEM_CACTVS_TAUTO_COUNT>
-1

> <PUBCHEM_COORDINATE_TYPE>
1
5
255

> <PUBCHEM_BONDANNOTATIONS>
5  1  3

$$$$
