 
  -OEChem-10192103342D

 72 73  0     1  0  0  0  0  0999 V2000
    4.2690   -3.5000    0.0000 O   0  0  0  0  0  0  0  0  0  0  0  0
   11.1972    3.5000    0.0000 O   0  0  0  0  0  0  0  0  0  0  0  0
    6.0010   -3.5000    0.0000 O   0  0  0  0  0  0  0  0  0  0  0  0
    9.4651    3.5000    0.0000 O   0  0  0  0  0  0  0  0  0  0  0  0
    4.2690   -6.5000    0.0000 O   0  0  0  0  0  0  0  0  0  0  0  0
    2.5369   -5.5000    0.0000 O   0  0  0  0  0  0  0  0  0  0  0  0
   11.1972    6.5000    0.0000 O   0  0  0  0  0  0  0  0  0  0  0  0
   12.9292    5.5000    0.0000 O   0  0  0  0  0  0  0  0  0  0  0  0
    6.0010   -5.5000    0.0000 O   0  0  0  0  0  0  0  0  0  0  0  0
    9.4651    5.5000    0.0000 O   0  0  0  0  0  0  0  0  0  0  0  0
    2.5369   -2.5000    0.0000 O   0  0  0  0  0  0  0  0  0  0  0  0
   12.9292    2.5000    0.0000 O   0  0  0  0  0  0  0  0  0  0  0  0
    4.2690   -5.5000    0.0000 C   0  0  1  0  0  0  0  0  0  0  0  0
    3.4030   -5.0000    0.0000 C   0  0  1  0  0  0  0  0  0  0  0  0
   11.1972    5.5000    0.0000 C   0  0  1  0  0  0  0  0  0  0  0  0
   12.0632    5.0000    0.0000 C   0  0  1  0  0  0  0  0  0  0  0  0
    5.1350   -5.0000    0.0000 C   0  0  2  0  0  0  0  0  0  0  0  0
    3.4030   -4.0000    0.0000 C   0  0  1  0  0  0  0  0  0  0  0  0
   10.3312    5.0000    0.0000 C   0  0  2  0  0  0  0  0  0  0  0  0
   12.0632    4.0000    0.0000 C   0  0  1  0  0  0  0  0  0  0  0  0
    5.1350   -4.0000    0.0000 C   0  0  1  0  0  0  0  0  0  0  0  0
   10.3312    4.0000    0.0000 C   0  0  1  0  0  0  0  0  0  0  0  0
    2.5369   -3.5000    0.0000 C   0  0  0  0  0  0  0  0  0  0  0  0
   12.9292    3.5000    0.0000 C   0  0  0  0  0  0  0  0  0  0  0  0
    6.0010   -2.5000    0.0000 C   0  0  0  0  0  0  0  0  0  0  0  0
    9.4651    2.5000    0.0000 C   0  0  0  0  0  0  0  0  0  0  0  0
    6.8671   -2.0000    0.0000 C   0  0  0  0  0  0  0  0  0  0  0  0
    8.5991    2.0000    0.0000 C   0  0  0  0  0  0  0  0  0  0  0  0
    8.5991    1.0000    0.0000 C   0  0  0  0  0  0  0  0  0  0  0  0
    7.7331    0.5000    0.0000 C   0  0  0  0  0  0  0  0  0  0  0  0
    7.7331   -0.5000    0.0000 C   0  0  0  0  0  0  0  0  0  0  0  0
    6.8671   -1.0000    0.0000 C   0  0  0  0  0  0  0  0  0  0  0  0
    7.7331   -2.5000    0.0000 C   0  0  0  0  0  0  0  0  0  0  0  0
    9.4651    0.5000    0.0000 C   0  0  0  0  0  0  0  0  0  0  0  0
    3.7320   -5.8100    0.0000 H   0  0  0  0  0  0  0  0  0  0  0  0
    3.4030   -5.6200    0.0000 H   0  0  0  0  0  0  0  0  0  0  0  0
   11.7341    5.8100    0.0000 H   0  0  0  0  0  0  0  0  0  0  0  0
   12.6002    4.6900    0.0000 H   0  0  0  0  0  0  0  0  0  0  0  0
    5.1350   -5.6200    0.0000 H   0  0  0  0  0  0  0  0  0  0  0  0
    3.4030   -3.3800    0.0000 H   0  0  0  0  0  0  0  0  0  0  0  0
   10.3312    5.6200    0.0000 H   0  0  0  0  0  0  0  0  0  0  0  0
   12.0632    3.3800    0.0000 H   0  0  0  0  0  0  0  0  0  0  0  0
    5.1350   -3.3800    0.0000 H   0  0  0  0  0  0  0  0  0  0  0  0
    9.7942    4.3100    0.0000 H   0  0  0  0  0  0  0  0  0  0  0  0
    1.9264   -3.3923    0.0000 H   0  0  0  0  0  0  0  0  0  0  0  0
    2.3249   -4.0826    0.0000 H   0  0  0  0  0  0  0  0  0  0  0  0
   13.5398    3.3923    0.0000 H   0  0  0  0  0  0  0  0  0  0  0  0
   13.1413    4.0826    0.0000 H   0  0  0  0  0  0  0  0  0  0  0  0
    3.7320   -6.8100    0.0000 H   0  0  0  0  0  0  0  0  0  0  0  0
    2.0000   -5.1900    0.0000 H   0  0  0  0  0  0  0  0  0  0  0  0
   11.7341    6.8100    0.0000 H   0  0  0  0  0  0  0  0  0  0  0  0
   13.4662    5.1900    0.0000 H   0  0  0  0  0  0  0  0  0  0  0  0
    6.5380   -5.1900    0.0000 H   0  0  0  0  0  0  0  0  0  0  0  0
    9.4651    6.1200    0.0000 H   0  0  0  0  0  0  0  0  0  0  0  0
    5.7890   -1.9174    0.0000 H   0  0  0  0  0  0  0  0  0  0  0  0
    5.3905   -2.6077    0.0000 H   0  0  0  0  0  0  0  0  0  0  0  0
    9.6772    1.9174    0.0000 H   0  0  0  0  0  0  0  0  0  0  0  0
   10.0757    2.6077    0.0000 H   0  0  0  0  0  0  0  0  0  0  0  0
    2.0000   -2.1900    0.0000 H   0  0  0  0  0  0  0  0  0  0  0  0
   13.4662    2.1900    0.0000 H   0  0  0  0  0  0  0  0  0  0  0  0
    8.0622    2.3100    0.0000 H   0  0  0  0  0  0  0  0  0  0  0  0
    7.5210    1.0826    0.0000 H   0  0  0  0  0  0  0  0  0  0  0  0
    7.1225    0.3923    0.0000 H   0  0  0  0  0  0  0  0  0  0  0  0
    7.9451   -1.0826    0.0000 H   0  0  0  0  0  0  0  0  0  0  0  0
    8.3437   -0.3923    0.0000 H   0  0  0  0  0  0  0  0  0  0  0  0
    6.3301   -0.6900    0.0000 H   0  0  0  0  0  0  0  0  0  0  0  0
    7.4231   -3.0369    0.0000 H   0  0  0  0  0  0  0  0  0  0  0  0
    8.2700   -2.8100    0.0000 H   0  0  0  0  0  0  0  0  0  0  0  0
    8.0431   -1.9631    0.0000 H   0  0  0  0  0  0  0  0  0  0  0  0
    9.1551   -0.0369    0.0000 H   0  0  0  0  0  0  0  0  0  0  0  0
   10.0021    0.1900    0.0000 H   0  0  0  0  0  0  0  0  0  0  0  0
    9.7751    1.0369    0.0000 H   0  0  0  0  0  0  0  0  0  0  0  0
  1 18  1  0  0  0  0
  1 21  1  0  0  0  0
  2 20  1  0  0  0  0
  2 22  1  0  0  0  0
 21  3  1  1  0  0  0
  3 25  1  0  0  0  0
 22  4  1  1  0  0  0
  4 26  1  0  0  0  0
 13  5  1  1  0  0  0
  5 49  1  0  0  0  0
 14  6  1  6  0  0  0
  6 50  1  0  0  0  0
 15  7  1  1  0  0  0
  7 51  1  0  0  0  0
 16  8  1  6  0  0  0
  8 52  1  0  0  0  0
 17  9  1  6  0  0  0
  9 53  1  0  0  0  0
 19 10  1  6  0  0  0
 10 54  1  0  0  0  0
 11 23  1  0  0  0  0
 11 59  1  0  0  0  0
 12 24  1  0  0  0  0
 12 60  1  0  0  0  0
 13 14  1  0  0  0  0
 13 17  1  0  0  0  0
 13 35  1  0  0  0  0
 14 18  1  0  0  0  0
 14 36  1  0  0  0  0
 15 16  1  0  0  0  0
 15 19  1  0  0  0  0
 15 37  1  0  0  0  0
 16 20  1  0  0  0  0
 16 38  1  0  0  0  0
 17 21  1  0  0  0  0
 17 39  1  0  0  0  0
 18 23  1  1  0  0  0
 18 40  1  0  0  0  0
 19 22  1  0  0  0  0
 19 41  1  0  0  0  0
 20 24  1  1  0  0  0
 20 42  1  0  0  0  0
 21 43  1  0  0  0  0
 22 44  1  0  0  0  0
 23 45  1  0  0  0  0
 23 46  1  0  0  0  0
 24 47  1  0  0  0  0
 24 48  1  0  0  0  0
 25 27  1  0  0  0  0
 25 55  1  0  0  0  0
 25 56  1  0  0  0  0
 26 28  1  0  0  0  0
 26 57  1  0  0  0  0
 26 58  1  0  0  0  0
 27 32  2  0  0  0  0
 27 33  1  0  0  0  0
 28 29  2  0  0  0  0
 28 61  1  0  0  0  0
 29 30  1  0  0  0  0
 29 34  1  0  0  0  0
 30 31  1  0  0  0  0
 30 62  1  0  0  0  0
 30 63  1  0  0  0  0
 31 32  1  0  0  0  0
 31 64  1  0  0  0  0
 31 65  1  0  0  0  0
 32 66  1  0  0  0  0
 33 67  1  0  0  0  0
 33 68  1  0  0  0  0
 33 69  1  0  0  0  0
 34 70  1  0  0  0  0
 34 71  1  0  0  0  0
 34 72  1  0  0  0  0
M  END
> <PUBCHEM_COMPOUND_CID>
21630837

> <PUBCHEM_COMPOUND_CANONICALIZED>
1

> <PUBCHEM_CACTVS_COMPLEXITY>
670

> <PUBCHEM_CACTVS_HBOND_ACCEPTOR>
12

> <PUBCHEM_CACTVS_HBOND_DONOR>
8

> <PUBCHEM_CACTVS_ROTATABLE_BOND>
11

> <PUBCHEM_CACTVS_SUBSKEYS>
AAADcfB4PAAAAAAAAAAAAAAAAAAAAAAAAAAkSAAAAAAAAAAAAAAAGgAACAAADBSwgAMCCAAABgCAAiBCAAAAAAAgAAAACAAAAAgRFAIAIQAiUAAFgAAPIAPAYAwAAAAAAAAAAAAAAAAAAAAAAAAAAAAAAA==

> <PUBCHEM_IUPAC_OPENEYE_NAME>
(2R,3R,4S,5S,6R)-2-[(2E,6E)-3,7-dimethyl-8-[(2R,3R,4S,5S,6R)-3,4,5-trihydroxy-6-(hydroxymethyl)tetrahydropyran-2-yl]oxy-octa-2,6-dienoxy]-6-(hydroxymethyl)tetrahydropyran-3,4,5-triol

> <PUBCHEM_IUPAC_CAS_NAME>
(2R,3R,4S,5S,6R)-2-[(2E,6E)-3,7-dimethyl-8-[[(2R,3R,4S,5S,6R)-3,4,5-trihydroxy-6-(hydroxymethyl)-2-oxanyl]oxy]octa-2,6-dienoxy]-6-(hydroxymethyl)oxane-3,4,5-triol

> <PUBCHEM_IUPAC_NAME_MARKUP>
(2<I>R</I>,3<I>R</I>,4<I>S</I>,5<I>S</I>,6<I>R</I>)-2-[(2<I>E</I>,6<I>E</I>)-3,7-dimethyl-8-[(2<I>R</I>,3<I>R</I>,4<I>S</I>,5<I>S</I>,6<I>R</I>)-3,4,5-trihydroxy-6-(hydroxymethyl)oxan-2-yl]oxyocta-2,6-dienoxy]-6-(hydroxymethyl)oxane-3,4,5-triol

> <PUBCHEM_IUPAC_NAME>
(2R,3R,4S,5S,6R)-2-[(2E,6E)-3,7-dimethyl-8-[(2R,3R,4S,5S,6R)-3,4,5-trihydroxy-6-(hydroxymethyl)oxan-2-yl]oxyocta-2,6-dienoxy]-6-(hydroxymethyl)oxane-3,4,5-triol

> <PUBCHEM_IUPAC_SYSTEMATIC_NAME>
(2R,3S,4S,5R,6R)-2-(hydroxymethyl)-6-[(2E,6E)-8-[(2R,3R,4S,5S,6R)-6-(hydroxymethyl)-3,4,5-tris(oxidanyl)oxan-2-yl]oxy-3,7-dimethyl-octa-2,6-dienoxy]oxane-3,4,5-triol

> <PUBCHEM_IUPAC_TRADITIONAL_NAME>
(2R,3R,4S,5S,6R)-2-[(2E,6E)-3,7-dimethyl-8-[(2R,3R,4S,5S,6R)-3,4,5-trihydroxy-6-methylol-tetrahydropyran-2-yl]oxy-octa-2,6-dienoxy]-6-methylol-tetrahydropyran-3,4,5-triol

> <PUBCHEM_IUPAC_INCHI>
InChI=1S/C22H38O12/c1-11(6-7-31-21-19(29)17(27)15(25)13(8-23)33-21)4-3-5-12(2)10-32-22-20(30)18(28)16(26)14(9-24)34-22/h5-6,13-30H,3-4,7-10H2,1-2H3/b11-6+,12-5+/t13-,14-,15-,16-,17+,18+,19-,20-,21-,22-/m1/s1

> <PUBCHEM_IUPAC_INCHIKEY>
LTZJUQWTMQRZCQ-YDOZGBBKSA-N

> <PUBCHEM_XLOGP3_AA>
-1.5

> <PUBCHEM_EXACT_MASS>
494.23632664

> <PUBCHEM_MOLECULAR_FORMULA>
C22H38O12

> <PUBCHEM_MOLECULAR_WEIGHT>
494.5

> <PUBCHEM_OPENEYE_CAN_SMILES>
CC(=CCOC1C(C(C(C(O1)CO)O)O)O)CCC=C(C)COC2C(C(C(C(O2)CO)O)O)O

> <PUBCHEM_OPENEYE_ISO_SMILES>
C/C(=C\CO[C@H]1[C@@H]([C@H]([C@@H]([C@H](O1)CO)O)O)O)/CC/C=C(\C)/CO[C@H]2[C@@H]([C@H]([C@@H]([C@H](O2)CO)O)O)O

> <PUBCHEM_CACTVS_TPSA>
199

> <PUBCHEM_MONOISOTOPIC_WEIGHT>
494.23632664

> <PUBCHEM_TOTAL_CHARGE>
0

> <PUBCHEM_HEAVY_ATOM_COUNT>
34

> <PUBCHEM_ATOM_DEF_STEREO_COUNT>
10

> <PUBCHEM_ATOM_UDEF_STEREO_COUNT>
0

> <PUBCHEM_BOND_DEF_STEREO_COUNT>
2

> <PUBCHEM_BOND_UDEF_STEREO_COUNT>
0

> <PUBCHEM_ISOTOPIC_ATOM_COUNT>
0

> <PUBCHEM_COMPONENT_COUNT>
1

> <PUBCHEM_CACTVS_TAUTO_COUNT>
-1

> <PUBCHEM_COORDINATE_TYPE>
1
5
255

> <PUBCHEM_BONDANNOTATIONS>
19  10  6
18  23  5
20  24  5
21  3  5
22  4  5
13  5  5
14  6  6
15  7  5
16  8  6
17  9  6

$$$$
