 
  -OEChem-10192104282D

 85 90  0     1  0  0  0  0  0999 V2000
    7.1962    1.0000    0.0000 O   0  0  0  0  0  0  0  0  0  0  0  0
    7.1962   -2.0000    0.0000 O   0  0  0  0  0  0  0  0  0  0  0  0
    5.4641   -1.0000    0.0000 O   0  0  0  0  0  0  0  0  0  0  0  0
    8.9282   -1.0000    0.0000 O   0  0  0  0  0  0  0  0  0  0  0  0
    8.9282    1.0000    0.0000 O   0  0  0  0  0  0  0  0  0  0  0  0
    5.4641    2.0000    0.0000 O   0  0  0  0  0  0  0  0  0  0  0  0
    5.4641   -2.0000    0.0000 O   0  0  0  0  0  0  0  0  0  0  0  0
    4.5981    0.5000    0.0000 O   0  0  0  0  0  0  0  0  0  0  0  0
    9.7942    0.5000    0.0000 O   0  0  0  0  0  0  0  0  0  0  0  0
    3.7320    2.0000    0.0000 O   0  0  0  0  0  0  0  0  0  0  0  0
    7.1962   -1.0000    0.0000 C   0  0  1  0  0  0  0  0  0  0  0  0
    6.3301   -0.5000    0.0000 C   0  0  2  0  0  0  0  0  0  0  0  0
    8.0622   -0.5000    0.0000 C   0  0  1  0  0  0  0  0  0  0  0  0
    6.3301    0.5000    0.0000 C   0  0  1  0  0  0  0  0  0  0  0  0
    8.0622    0.5000    0.0000 C   0  0  1  0  0  0  0  0  0  0  0  0
    5.4641    1.0000    0.0000 C   0  0  0  0  0  0  0  0  0  0  0  0
    8.9282    2.0000    0.0000 C   0  0  0  0  0  0  0  0  0  0  0  0
    6.3301   -2.5000    0.0000 C   0  0  0  0  0  0  0  0  0  0  0  0
    4.5981   -0.5000    0.0000 C   0  0  0  0  0  0  0  0  0  0  0  0
    9.7942   -0.5000    0.0000 C   0  0  0  0  0  0  0  0  0  0  0  0
    9.7942    2.5000    0.0000 C   0  0  0  0  0  0  0  0  0  0  0  0
    6.3301   -3.5000    0.0000 C   0  0  0  0  0  0  0  0  0  0  0  0
    3.7320   -1.0000    0.0000 C   0  0  0  0  0  0  0  0  0  0  0  0
    4.5981    2.5000    0.0000 C   0  0  0  0  0  0  0  0  0  0  0  0
   10.6603   -1.0000    0.0000 C   0  0  0  0  0  0  0  0  0  0  0  0
    9.7942    3.5000    0.0000 C   0  0  0  0  0  0  0  0  0  0  0  0
   10.6603    2.0000    0.0000 C   0  0  0  0  0  0  0  0  0  0  0  0
    4.5981    3.5000    0.0000 C   0  0  0  0  0  0  0  0  0  0  0  0
    7.1962   -4.0000    0.0000 C   0  0  0  0  0  0  0  0  0  0  0  0
    5.4641   -4.0000    0.0000 C   0  0  0  0  0  0  0  0  0  0  0  0
    3.7320   -2.0000    0.0000 C   0  0  0  0  0  0  0  0  0  0  0  0
    2.8660   -0.5000    0.0000 C   0  0  0  0  0  0  0  0  0  0  0  0
   11.5263   -0.5000    0.0000 C   0  0  0  0  0  0  0  0  0  0  0  0
   10.6603   -2.0000    0.0000 C   0  0  0  0  0  0  0  0  0  0  0  0
   10.6603    4.0000    0.0000 C   0  0  0  0  0  0  0  0  0  0  0  0
   11.5263    2.5000    0.0000 C   0  0  0  0  0  0  0  0  0  0  0  0
    7.1962   -5.0000    0.0000 C   0  0  0  0  0  0  0  0  0  0  0  0
    5.4641   -5.0000    0.0000 C   0  0  0  0  0  0  0  0  0  0  0  0
    2.8660   -2.5000    0.0000 C   0  0  0  0  0  0  0  0  0  0  0  0
    2.0000   -1.0000    0.0000 C   0  0  0  0  0  0  0  0  0  0  0  0
   12.3923   -1.0000    0.0000 C   0  0  0  0  0  0  0  0  0  0  0  0
   11.5263   -2.5000    0.0000 C   0  0  0  0  0  0  0  0  0  0  0  0
   11.5263    3.5000    0.0000 C   0  0  0  0  0  0  0  0  0  0  0  0
    3.7320    4.0000    0.0000 C   0  0  0  0  0  0  0  0  0  0  0  0
    5.4641    4.0000    0.0000 C   0  0  0  0  0  0  0  0  0  0  0  0
    6.3301   -5.5000    0.0000 C   0  0  0  0  0  0  0  0  0  0  0  0
    2.0000   -2.0000    0.0000 C   0  0  0  0  0  0  0  0  0  0  0  0
   12.3923   -2.0000    0.0000 C   0  0  0  0  0  0  0  0  0  0  0  0
    3.7320    5.0000    0.0000 C   0  0  0  0  0  0  0  0  0  0  0  0
    5.4641    5.0000    0.0000 C   0  0  0  0  0  0  0  0  0  0  0  0
    4.5981    5.5000    0.0000 C   0  0  0  0  0  0  0  0  0  0  0  0
    6.6592   -1.3100    0.0000 H   0  0  0  0  0  0  0  0  0  0  0  0
    6.3301   -1.1200    0.0000 H   0  0  0  0  0  0  0  0  0  0  0  0
    8.0622   -1.1200    0.0000 H   0  0  0  0  0  0  0  0  0  0  0  0
    6.3301    1.1200    0.0000 H   0  0  0  0  0  0  0  0  0  0  0  0
    8.0622    1.1200    0.0000 H   0  0  0  0  0  0  0  0  0  0  0  0
    4.8535    1.1077    0.0000 H   0  0  0  0  0  0  0  0  0  0  0  0
    5.2520    0.4174    0.0000 H   0  0  0  0  0  0  0  0  0  0  0  0
    8.7162    2.5826    0.0000 H   0  0  0  0  0  0  0  0  0  0  0  0
    8.3176    1.8923    0.0000 H   0  0  0  0  0  0  0  0  0  0  0  0
    9.2573    3.8100    0.0000 H   0  0  0  0  0  0  0  0  0  0  0  0
   10.6603    1.3800    0.0000 H   0  0  0  0  0  0  0  0  0  0  0  0
    7.7331   -3.6900    0.0000 H   0  0  0  0  0  0  0  0  0  0  0  0
    4.9272   -3.6900    0.0000 H   0  0  0  0  0  0  0  0  0  0  0  0
    4.2690   -2.3100    0.0000 H   0  0  0  0  0  0  0  0  0  0  0  0
    2.8660    0.1200    0.0000 H   0  0  0  0  0  0  0  0  0  0  0  0
   11.5263    0.1200    0.0000 H   0  0  0  0  0  0  0  0  0  0  0  0
   10.1233   -2.3100    0.0000 H   0  0  0  0  0  0  0  0  0  0  0  0
   10.6603    4.6200    0.0000 H   0  0  0  0  0  0  0  0  0  0  0  0
   12.0632    2.1900    0.0000 H   0  0  0  0  0  0  0  0  0  0  0  0
    7.7331   -5.3100    0.0000 H   0  0  0  0  0  0  0  0  0  0  0  0
    4.9272   -5.3100    0.0000 H   0  0  0  0  0  0  0  0  0  0  0  0
    2.8660   -3.1200    0.0000 H   0  0  0  0  0  0  0  0  0  0  0  0
    1.4631   -0.6900    0.0000 H   0  0  0  0  0  0  0  0  0  0  0  0
   12.9292   -0.6900    0.0000 H   0  0  0  0  0  0  0  0  0  0  0  0
   11.5263   -3.1200    0.0000 H   0  0  0  0  0  0  0  0  0  0  0  0
   12.0632    3.8100    0.0000 H   0  0  0  0  0  0  0  0  0  0  0  0
    3.1951    3.6900    0.0000 H   0  0  0  0  0  0  0  0  0  0  0  0
    6.0010    3.6900    0.0000 H   0  0  0  0  0  0  0  0  0  0  0  0
    6.3301   -6.1200    0.0000 H   0  0  0  0  0  0  0  0  0  0  0  0
    1.4631   -2.3100    0.0000 H   0  0  0  0  0  0  0  0  0  0  0  0
   12.9292   -2.3100    0.0000 H   0  0  0  0  0  0  0  0  0  0  0  0
    3.1951    5.3100    0.0000 H   0  0  0  0  0  0  0  0  0  0  0  0
    6.0010    5.3100    0.0000 H   0  0  0  0  0  0  0  0  0  0  0  0
    4.5981    6.1200    0.0000 H   0  0  0  0  0  0  0  0  0  0  0  0
  1 14  1  0  0  0  0
  1 15  1  0  0  0  0
 11  2  1  1  0  0  0
  2 18  1  0  0  0  0
 12  3  1  1  0  0  0
  3 19  1  0  0  0  0
 13  4  1  1  0  0  0
  4 20  1  0  0  0  0
 15  5  1  1  0  0  0
  5 17  1  0  0  0  0
  6 16  1  0  0  0  0
  6 24  1  0  0  0  0
  7 18  2  0  0  0  0
  8 19  2  0  0  0  0
  9 20  2  0  0  0  0
 10 24  2  0  0  0  0
 11 12  1  0  0  0  0
 11 13  1  0  0  0  0
 11 52  1  0  0  0  0
 12 14  1  0  0  0  0
 12 53  1  0  0  0  0
 13 15  1  0  0  0  0
 13 54  1  0  0  0  0
 14 16  1  1  0  0  0
 14 55  1  0  0  0  0
 15 56  1  0  0  0  0
 16 57  1  0  0  0  0
 16 58  1  0  0  0  0
 17 21  1  0  0  0  0
 17 59  1  0  0  0  0
 17 60  1  0  0  0  0
 18 22  1  0  0  0  0
 19 23  1  0  0  0  0
 20 25  1  0  0  0  0
 21 26  2  0  0  0  0
 21 27  1  0  0  0  0
 22 29  2  0  0  0  0
 22 30  1  0  0  0  0
 23 31  2  0  0  0  0
 23 32  1  0  0  0  0
 24 28  1  0  0  0  0
 25 33  2  0  0  0  0
 25 34  1  0  0  0  0
 26 35  1  0  0  0  0
 26 61  1  0  0  0  0
 27 36  2  0  0  0  0
 27 62  1  0  0  0  0
 28 44  2  0  0  0  0
 28 45  1  0  0  0  0
 29 37  1  0  0  0  0
 29 63  1  0  0  0  0
 30 38  2  0  0  0  0
 30 64  1  0  0  0  0
 31 39  1  0  0  0  0
 31 65  1  0  0  0  0
 32 40  2  0  0  0  0
 32 66  1  0  0  0  0
 33 41  1  0  0  0  0
 33 67  1  0  0  0  0
 34 42  2  0  0  0  0
 34 68  1  0  0  0  0
 35 43  2  0  0  0  0
 35 69  1  0  0  0  0
 36 43  1  0  0  0  0
 36 70  1  0  0  0  0
 37 46  2  0  0  0  0
 37 71  1  0  0  0  0
 38 46  1  0  0  0  0
 38 72  1  0  0  0  0
 39 47  2  0  0  0  0
 39 73  1  0  0  0  0
 40 47  1  0  0  0  0
 40 74  1  0  0  0  0
 41 48  2  0  0  0  0
 41 75  1  0  0  0  0
 42 48  1  0  0  0  0
 42 76  1  0  0  0  0
 43 77  1  0  0  0  0
 44 49  1  0  0  0  0
 44 78  1  0  0  0  0
 45 50  2  0  0  0  0
 45 79  1  0  0  0  0
 46 80  1  0  0  0  0
 47 81  1  0  0  0  0
 48 82  1  0  0  0  0
 49 51  2  0  0  0  0
 49 83  1  0  0  0  0
 50 51  1  0  0  0  0
 50 84  1  0  0  0  0
 51 85  1  0  0  0  0
M  END
> <PUBCHEM_COMPOUND_CID>
11828578

> <PUBCHEM_COMPOUND_CANONICALIZED>
1

> <PUBCHEM_CACTVS_COMPLEXITY>
1110

> <PUBCHEM_CACTVS_HBOND_ACCEPTOR>
10

> <PUBCHEM_CACTVS_HBOND_DONOR>
0

> <PUBCHEM_CACTVS_ROTATABLE_BOND>
16

> <PUBCHEM_CACTVS_SUBSKEYS>
AAADcfB8PAAAAAAAAAAAAAAAAAAAAAAAAAA0YMGDAAAAAAABVAAAGgAAAAAADBSwmAMwCIAABACIAiDSCAACAAAkAAAIiAEACMgZJjKANRiiMQAlwAEOqYfI6CyOAAAAAAAAAAAAAAAAAAAAAAAAAAAAAA==

> <PUBCHEM_IUPAC_OPENEYE_NAME>
[(2R,3S,4S,5S,6R)-3,4,5-tribenzoyloxy-6-benzyloxy-tetrahydropyran-2-yl]methyl benzoate

> <PUBCHEM_IUPAC_CAS_NAME>
benzoic acid [(2R,3S,4S,5S,6R)-3,4,5-tribenzoyloxy-6-phenylmethoxy-2-oxanyl]methyl ester

> <PUBCHEM_IUPAC_NAME_MARKUP>
[(2<I>R</I>,3<I>S</I>,4<I>S</I>,5<I>S</I>,6<I>R</I>)-3,4,5-tribenzoyloxy-6-phenylmethoxyoxan-2-yl]methyl benzoate

> <PUBCHEM_IUPAC_NAME>
[(2R,3S,4S,5S,6R)-3,4,5-tribenzoyloxy-6-phenylmethoxyoxan-2-yl]methyl benzoate

> <PUBCHEM_IUPAC_SYSTEMATIC_NAME>
[(2R,3S,4S,5S,6R)-3,4,5-tris(phenylcarbonyloxy)-6-phenylmethoxy-oxan-2-yl]methyl benzoate

> <PUBCHEM_IUPAC_TRADITIONAL_NAME>
benzoic acid [(2R,3S,4S,5S,6R)-6-benzoxy-3,4,5-tribenzoyloxy-tetrahydropyran-2-yl]methyl ester

> <PUBCHEM_IUPAC_INCHI>
InChI=1S/C41H34O10/c42-37(29-18-8-2-9-19-29)46-27-33-34(49-38(43)30-20-10-3-11-21-30)35(50-39(44)31-22-12-4-13-23-31)36(51-40(45)32-24-14-5-15-25-32)41(48-33)47-26-28-16-6-1-7-17-28/h1-25,33-36,41H,26-27H2/t33-,34+,35+,36+,41-/m1/s1

> <PUBCHEM_IUPAC_INCHIKEY>
NMXOGSCCGHOTJL-RZEWGIDYSA-N

> <PUBCHEM_XLOGP3_AA>
7.8

> <PUBCHEM_EXACT_MASS>
686.21519728

> <PUBCHEM_MOLECULAR_FORMULA>
C41H34O10

> <PUBCHEM_MOLECULAR_WEIGHT>
686.7

> <PUBCHEM_OPENEYE_CAN_SMILES>
C1=CC=C(C=C1)COC2C(C(C(C(O2)COC(=O)C3=CC=CC=C3)OC(=O)C4=CC=CC=C4)OC(=O)C5=CC=CC=C5)OC(=O)C6=CC=CC=C6

> <PUBCHEM_OPENEYE_ISO_SMILES>
C1=CC=C(C=C1)CO[C@H]2[C@H]([C@H]([C@H]([C@H](O2)COC(=O)C3=CC=CC=C3)OC(=O)C4=CC=CC=C4)OC(=O)C5=CC=CC=C5)OC(=O)C6=CC=CC=C6

> <PUBCHEM_CACTVS_TPSA>
124

> <PUBCHEM_MONOISOTOPIC_WEIGHT>
686.21519728

> <PUBCHEM_TOTAL_CHARGE>
0

> <PUBCHEM_HEAVY_ATOM_COUNT>
51

> <PUBCHEM_ATOM_DEF_STEREO_COUNT>
5

> <PUBCHEM_ATOM_UDEF_STEREO_COUNT>
0

> <PUBCHEM_BOND_DEF_STEREO_COUNT>
0

> <PUBCHEM_BOND_UDEF_STEREO_COUNT>
0

> <PUBCHEM_ISOTOPIC_ATOM_COUNT>
0

> <PUBCHEM_COMPONENT_COUNT>
1

> <PUBCHEM_CACTVS_TAUTO_COUNT>
-1

> <PUBCHEM_COORDINATE_TYPE>
1
5
255

> <PUBCHEM_BONDANNOTATIONS>
14  16  5
11  2  5
21  26  8
21  27  8
22  29  8
22  30  8
23  31  8
23  32  8
25  33  8
25  34  8
26  35  8
27  36  8
28  44  8
28  45  8
29  37  8
12  3  5
30  38  8
31  39  8
32  40  8
33  41  8
34  42  8
35  43  8
36  43  8
37  46  8
38  46  8
39  47  8
13  4  5
40  47  8
41  48  8
42  48  8
44  49  8
45  50  8
49  51  8
15  5  5
50  51  8

$$$$
