 
  -OEChem-10192104162D

 91 96  0     1  0  0  0  0  0999 V2000
    8.0460   -0.2029    0.0000 O   0  0  0  0  0  0  0  0  0  0  0  0
    8.6697    2.7316    0.0000 O   0  0  0  0  0  0  0  0  0  0  0  0
   10.0671    0.5895    0.0000 O   0  0  0  0  0  0  0  0  0  0  0  0
   10.4018    2.1638    0.0000 O   0  0  0  0  0  0  0  0  0  0  0  0
    6.2859    0.0759    0.0000 O   0  0  0  0  0  0  0  0  0  0  0  0
    6.5597    1.1354    0.0000 O   0  0  0  0  0  0  0  0  0  0  0  0
    7.3737   -2.2720    0.0000 O   0  0  0  0  0  0  0  0  0  0  0  0
    5.1981   -2.2720    0.0000 O   0  0  0  0  0  0  0  0  0  0  0  0
    7.1834    4.0698    0.0000 O   0  0  0  0  0  0  0  0  0  0  0  0
    4.3179    0.7753    0.0000 O   0  0  0  0  0  0  0  0  0  0  0  0
    4.8655    1.4955    0.0000 O   0  0  0  0  0  0  0  0  0  0  0  0
    5.9724   -3.2900    0.0000 O   0  0  0  0  0  0  0  0  0  0  0  0
    3.7969   -1.2539    0.0000 O   0  0  0  0  0  0  0  0  0  0  0  0
    5.4892    4.4299    0.0000 O   0  0  0  0  0  0  0  0  0  0  0  0
    2.6237    0.4152    0.0000 O   0  0  0  0  0  0  0  0  0  0  0  0
    8.2539    0.7753    0.0000 C   0  0  2  0  0  0  0  0  0  0  0  0
    9.2050    1.0843    0.0000 C   0  0  2  0  0  0  0  0  0  0  0  0
    7.5108    1.4444    0.0000 C   0  0  2  0  0  0  0  0  0  0  0  0
    9.4129    2.0624    0.0000 C   0  0  2  0  0  0  0  0  0  0  0  0
    7.7187    2.4225    0.0000 C   0  0  1  0  0  0  0  0  0  0  0  0
    7.0949   -0.5119    0.0000 C   0  0  2  0  0  0  0  0  0  0  0  0
    6.7859   -1.4630    0.0000 C   0  0  1  0  0  0  0  0  0  0  0  0
    5.7859   -1.4630    0.0000 C   0  0  2  0  0  0  0  0  0  0  0  0
    5.4769   -0.5119    0.0000 C   0  0  2  0  0  0  0  0  0  0  0  0
   10.8053    1.2553    0.0000 C   0  0  3  0  0  0  0  0  0  0  0  0
    6.9755    3.0917    0.0000 C   0  0  0  0  0  0  0  0  0  0  0  0
    4.5258   -0.2029    0.0000 C   0  0  0  0  0  0  0  0  0  0  0  0
   11.7835    1.0474    0.0000 C   0  0  0  0  0  0  0  0  0  0  0  0
    5.8166    1.8045    0.0000 C   0  0  0  0  0  0  0  0  0  0  0  0
    6.9670   -3.1855    0.0000 C   0  0  0  0  0  0  0  0  0  0  0  0
    4.2036   -2.1674    0.0000 C   0  0  0  0  0  0  0  0  0  0  0  0
    6.0245    2.7827    0.0000 C   0  0  0  0  0  0  0  0  0  0  0  0
    6.4403    4.7390    0.0000 C   0  0  0  0  0  0  0  0  0  0  0  0
    7.5548   -3.9945    0.0000 C   0  0  0  0  0  0  0  0  0  0  0  0
    3.6158   -2.9765    0.0000 C   0  0  0  0  0  0  0  0  0  0  0  0
    3.3669    1.0843    0.0000 C   0  0  0  0  0  0  0  0  0  0  0  0
    6.6482    5.7171    0.0000 C   0  0  0  0  0  0  0  0  0  0  0  0
    8.5493   -3.8900    0.0000 C   0  0  0  0  0  0  0  0  0  0  0  0
    7.1480   -4.9081    0.0000 C   0  0  0  0  0  0  0  0  0  0  0  0
    3.1590    2.0624    0.0000 C   0  0  0  0  0  0  0  0  0  0  0  0
    2.6213   -2.8719    0.0000 C   0  0  0  0  0  0  0  0  0  0  0  0
    4.0226   -3.8900    0.0000 C   0  0  0  0  0  0  0  0  0  0  0  0
    9.1371   -4.6990    0.0000 C   0  0  0  0  0  0  0  0  0  0  0  0
    7.7358   -5.7171    0.0000 C   0  0  0  0  0  0  0  0  0  0  0  0
    2.0335   -3.6810    0.0000 C   0  0  0  0  0  0  0  0  0  0  0  0
    3.4348   -4.6990    0.0000 C   0  0  0  0  0  0  0  0  0  0  0  0
    3.9021    2.7316    0.0000 C   0  0  0  0  0  0  0  0  0  0  0  0
    2.2079    2.3714    0.0000 C   0  0  0  0  0  0  0  0  0  0  0  0
    8.7303   -5.6126    0.0000 C   0  0  0  0  0  0  0  0  0  0  0  0
    2.4403   -4.5945    0.0000 C   0  0  0  0  0  0  0  0  0  0  0  0
    3.6942    3.7097    0.0000 C   0  0  0  0  0  0  0  0  0  0  0  0
    2.0000    3.3496    0.0000 C   0  0  0  0  0  0  0  0  0  0  0  0
    2.7431    4.0187    0.0000 C   0  0  0  0  0  0  0  0  0  0  0  0
    8.7147    0.3604    0.0000 H   0  0  0  0  0  0  0  0  0  0  0  0
    9.1172    0.2388    0.0000 H   0  0  0  0  0  0  0  0  0  0  0  0
    7.3819    0.8379    0.0000 H   0  0  0  0  0  0  0  0  0  0  0  0
    9.6766    2.8705    0.0000 H   0  0  0  0  0  0  0  0  0  0  0  0
    7.8476    3.0290    0.0000 H   0  0  0  0  0  0  0  0  0  0  0  0
    7.1919    0.1005    0.0000 H   0  0  0  0  0  0  0  0  0  0  0  0
    7.3983   -1.3660    0.0000 H   0  0  0  0  0  0  0  0  0  0  0  0
    6.0674   -2.0154    0.0000 H   0  0  0  0  0  0  0  0  0  0  0  0
    5.3799    0.1005    0.0000 H   0  0  0  0  0  0  0  0  0  0  0  0
   10.9660    0.6565    0.0000 H   0  0  0  0  0  0  0  0  0  0  0  0
    6.4007    3.3239    0.0000 H   0  0  0  0  0  0  0  0  0  0  0  0
    6.6470    2.5659    0.0000 H   0  0  0  0  0  0  0  0  0  0  0  0
    3.9062   -0.2245    0.0000 H   0  0  0  0  0  0  0  0  0  0  0  0
    4.4396   -0.8168    0.0000 H   0  0  0  0  0  0  0  0  0  0  0  0
   11.6546    0.4409    0.0000 H   0  0  0  0  0  0  0  0  0  0  0  0
   12.3899    0.9185    0.0000 H   0  0  0  0  0  0  0  0  0  0  0  0
   11.9124    1.6538    0.0000 H   0  0  0  0  0  0  0  0  0  0  0  0
    6.6309    2.6538    0.0000 H   0  0  0  0  0  0  0  0  0  0  0  0
    6.1534    3.3891    0.0000 H   0  0  0  0  0  0  0  0  0  0  0  0
    5.4180    2.9116    0.0000 H   0  0  0  0  0  0  0  0  0  0  0  0
    7.2547    5.5882    0.0000 H   0  0  0  0  0  0  0  0  0  0  0  0
    6.7771    6.3236    0.0000 H   0  0  0  0  0  0  0  0  0  0  0  0
    6.0418    5.8460    0.0000 H   0  0  0  0  0  0  0  0  0  0  0  0
    8.8015   -3.3236    0.0000 H   0  0  0  0  0  0  0  0  0  0  0  0
    6.5314   -4.9729    0.0000 H   0  0  0  0  0  0  0  0  0  0  0  0
    2.3691   -2.3055    0.0000 H   0  0  0  0  0  0  0  0  0  0  0  0
    4.6392   -3.9548    0.0000 H   0  0  0  0  0  0  0  0  0  0  0  0
    9.7537   -4.6342    0.0000 H   0  0  0  0  0  0  0  0  0  0  0  0
    7.4836   -6.2835    0.0000 H   0  0  0  0  0  0  0  0  0  0  0  0
    1.4169   -3.6161    0.0000 H   0  0  0  0  0  0  0  0  0  0  0  0
    3.6870   -5.2654    0.0000 H   0  0  0  0  0  0  0  0  0  0  0  0
    4.4918    2.5400    0.0000 H   0  0  0  0  0  0  0  0  0  0  0  0
    1.7472    1.9566    0.0000 H   0  0  0  0  0  0  0  0  0  0  0  0
    9.0948   -6.1142    0.0000 H   0  0  0  0  0  0  0  0  0  0  0  0
    2.0758   -5.0961    0.0000 H   0  0  0  0  0  0  0  0  0  0  0  0
    4.1550    4.1246    0.0000 H   0  0  0  0  0  0  0  0  0  0  0  0
    1.4103    3.5412    0.0000 H   0  0  0  0  0  0  0  0  0  0  0  0
    2.6142    4.6252    0.0000 H   0  0  0  0  0  0  0  0  0  0  0  0
 16  1  1  1  0  0  0
 21  1  1  1  0  0  0
  2 19  1  0  0  0  0
  2 20  1  0  0  0  0
  3 17  1  0  0  0  0
  3 25  1  0  0  0  0
  4 19  1  0  0  0  0
  4 25  1  0  0  0  0
  5 21  1  0  0  0  0
  5 24  1  0  0  0  0
 18  6  1  1  0  0  0
  6 29  1  0  0  0  0
 22  7  1  6  0  0  0
  7 30  1  0  0  0  0
 23  8  1  1  0  0  0
  8 31  1  0  0  0  0
  9 26  1  0  0  0  0
  9 33  1  0  0  0  0
 10 27  1  0  0  0  0
 10 36  1  0  0  0  0
 11 29  2  0  0  0  0
 12 30  2  0  0  0  0
 13 31  2  0  0  0  0
 14 33  2  0  0  0  0
 15 36  2  0  0  0  0
 16 17  1  0  0  0  0
 16 18  1  0  0  0  0
 16 54  1  0  0  0  0
 17 19  1  0  0  0  0
 17 55  1  1  0  0  0
 18 20  1  0  0  0  0
 18 56  1  0  0  0  0
 19 57  1  1  0  0  0
 20 26  1  1  0  0  0
 20 58  1  0  0  0  0
 21 22  1  0  0  0  0
 21 59  1  0  0  0  0
 22 23  1  0  0  0  0
 22 60  1  0  0  0  0
 23 24  1  0  0  0  0
 23 61  1  0  0  0  0
 24 27  1  6  0  0  0
 24 62  1  0  0  0  0
 25 28  1  0  0  0  0
 25 63  1  0  0  0  0
 26 64  1  0  0  0  0
 26 65  1  0  0  0  0
 27 66  1  0  0  0  0
 27 67  1  0  0  0  0
 28 68  1  0  0  0  0
 28 69  1  0  0  0  0
 28 70  1  0  0  0  0
 29 32  1  0  0  0  0
 30 34  1  0  0  0  0
 31 35  1  0  0  0  0
 32 71  1  0  0  0  0
 32 72  1  0  0  0  0
 32 73  1  0  0  0  0
 33 37  1  0  0  0  0
 34 38  2  0  0  0  0
 34 39  1  0  0  0  0
 35 41  2  0  0  0  0
 35 42  1  0  0  0  0
 36 40  1  0  0  0  0
 37 74  1  0  0  0  0
 37 75  1  0  0  0  0
 37 76  1  0  0  0  0
 38 43  1  0  0  0  0
 38 77  1  0  0  0  0
 39 44  2  0  0  0  0
 39 78  1  0  0  0  0
 40 47  2  0  0  0  0
 40 48  1  0  0  0  0
 41 45  1  0  0  0  0
 41 79  1  0  0  0  0
 42 46  2  0  0  0  0
 42 80  1  0  0  0  0
 43 49  2  0  0  0  0
 43 81  1  0  0  0  0
 44 49  1  0  0  0  0
 44 82  1  0  0  0  0
 45 50  2  0  0  0  0
 45 83  1  0  0  0  0
 46 50  1  0  0  0  0
 46 84  1  0  0  0  0
 47 51  1  0  0  0  0
 47 85  1  0  0  0  0
 48 52  2  0  0  0  0
 48 86  1  0  0  0  0
 49 87  1  0  0  0  0
 50 88  1  0  0  0  0
 51 53  2  0  0  0  0
 51 89  1  0  0  0  0
 52 53  1  0  0  0  0
 52 90  1  0  0  0  0
 53 91  1  0  0  0  0
M  END
> <PUBCHEM_COMPOUND_CID>
101119960

> <PUBCHEM_COMPOUND_CANONICALIZED>
1

> <PUBCHEM_CACTVS_COMPLEXITY>
1270

> <PUBCHEM_CACTVS_HBOND_ACCEPTOR>
15

> <PUBCHEM_CACTVS_HBOND_DONOR>
0

> <PUBCHEM_CACTVS_ROTATABLE_BOND>
17

> <PUBCHEM_CACTVS_SUBSKEYS>
AAADcfB8PAAAAAAAAAAAAAAAAAAAASJAAAA0YMEAAAAAAEgBUAAAGgAAAAAADBSwmAMyCIAABACIAiDSCAACAAAkAAAIiAEACMgZJjKANRiiMQAlwAEOqYfI6CyOAAAAAAAAAAAAAAAAAAAAAAAAAAAAAA==

> <PUBCHEM_IUPAC_OPENEYE_NAME>
[(2S,3S,4R,5S)-5-[[(3aR,5R,6S,7S,7aR)-6-acetoxy-5-(acetoxymethyl)-2-methyl-5,6,7,7a-tetrahydro-3aH-[1,3]dioxolo[4,5-b]pyran-7-yl]oxy]-3,4-dibenzoyloxy-tetrahydrofuran-2-yl]methyl benzoate

> <PUBCHEM_IUPAC_CAS_NAME>
benzoic acid [(2S,3S,4R,5S)-5-[[(3aR,5R,6S,7S,7aR)-6-acetyloxy-5-(acetyloxymethyl)-2-methyl-5,6,7,7a-tetrahydro-3aH-[1,3]dioxolo[4,5-b]pyran-7-yl]oxy]-3,4-dibenzoyloxy-2-oxolanyl]methyl ester

> <PUBCHEM_IUPAC_NAME_MARKUP>
[(2<I>S</I>,3<I>S</I>,4<I>R</I>,5<I>S</I>)-5-[[(3<I>a</I><I>R</I>,5<I>R</I>,6<I>S</I>,7<I>S</I>,7<I>a</I><I>R</I>)-6-acetyloxy-5-(acetyloxymethyl)-2-methyl-5,6,7,7<I>a</I>-tetrahydro-3<I>a</I><I>H</I>-[1,3]dioxolo[4,5-b]pyran-7-yl]oxy]-3,4-dibenzoyloxyoxolan-2-yl]methyl benzoate

> <PUBCHEM_IUPAC_NAME>
[(2S,3S,4R,5S)-5-[[(3aR,5R,6S,7S,7aR)-6-acetyloxy-5-(acetyloxymethyl)-2-methyl-5,6,7,7a-tetrahydro-3aH-[1,3]dioxolo[4,5-b]pyran-7-yl]oxy]-3,4-dibenzoyloxyoxolan-2-yl]methyl benzoate

> <PUBCHEM_IUPAC_SYSTEMATIC_NAME>
[(2S,3S,4R,5S)-5-[[(3aR,5R,6S,7S,7aR)-6-acetyloxy-5-(acetyloxymethyl)-2-methyl-5,6,7,7a-tetrahydro-3aH-[1,3]dioxolo[4,5-b]pyran-7-yl]oxy]-3,4-bis(phenylcarbonyloxy)oxolan-2-yl]methyl benzoate

> <PUBCHEM_IUPAC_TRADITIONAL_NAME>
benzoic acid [(2S,3S,4R,5S)-5-[[(3aR,5R,6S,7S,7aR)-6-acetoxy-5-(acetoxymethyl)-2-methyl-5,6,7,7a-tetrahydro-3aH-[1,3]dioxolo[4,5-b]pyran-7-yl]oxy]-3,4-dibenzoyloxy-tetrahydrofuran-2-yl]methyl ester

> <PUBCHEM_IUPAC_INCHI>
InChI=1S/C38H38O15/c1-21(39)44-19-27-29(46-22(2)40)31(33-37(49-27)48-23(3)47-33)53-38-32(52-36(43)26-17-11-6-12-18-26)30(51-35(42)25-15-9-5-10-16-25)28(50-38)20-45-34(41)24-13-7-4-8-14-24/h4-18,23,27-33,37-38H,19-20H2,1-3H3/t23?,27-,28+,29+,30+,31+,32-,33-,37+,38+/m1/s1

> <PUBCHEM_IUPAC_INCHIKEY>
XUNCOPRLJDWPQC-QFZDKOCPSA-N

> <PUBCHEM_XLOGP3_AA>
4.6

> <PUBCHEM_EXACT_MASS>
734.22107050

> <PUBCHEM_MOLECULAR_FORMULA>
C38H38O15

> <PUBCHEM_MOLECULAR_WEIGHT>
734.7

> <PUBCHEM_OPENEYE_CAN_SMILES>
CC1OC2C(C(C(OC2O1)COC(=O)C)OC(=O)C)OC3C(C(C(O3)COC(=O)C4=CC=CC=C4)OC(=O)C5=CC=CC=C5)OC(=O)C6=CC=CC=C6

> <PUBCHEM_OPENEYE_ISO_SMILES>
CC1O[C@@H]2[C@H]([C@H]([C@H](O[C@@H]2O1)COC(=O)C)OC(=O)C)O[C@H]3[C@@H]([C@H]([C@@H](O3)COC(=O)C4=CC=CC=C4)OC(=O)C5=CC=CC=C5)OC(=O)C6=CC=CC=C6

> <PUBCHEM_CACTVS_TPSA>
178

> <PUBCHEM_MONOISOTOPIC_WEIGHT>
734.22107050

> <PUBCHEM_TOTAL_CHARGE>
0

> <PUBCHEM_HEAVY_ATOM_COUNT>
53

> <PUBCHEM_ATOM_DEF_STEREO_COUNT>
9

> <PUBCHEM_ATOM_UDEF_STEREO_COUNT>
1

> <PUBCHEM_BOND_DEF_STEREO_COUNT>
0

> <PUBCHEM_BOND_UDEF_STEREO_COUNT>
0

> <PUBCHEM_ISOTOPIC_ATOM_COUNT>
0

> <PUBCHEM_COMPONENT_COUNT>
1

> <PUBCHEM_CACTVS_TAUTO_COUNT>
-1

> <PUBCHEM_COORDINATE_TYPE>
1
5
255

> <PUBCHEM_BONDANNOTATIONS>
16  1  5
21  1  5
17  55  5
19  57  5
20  26  5
24  27  6
25  28  3
34  38  8
34  39  8
35  41  8
35  42  8
38  43  8
39  44  8
40  47  8
40  48  8
41  45  8
42  46  8
43  49  8
44  49  8
45  50  8
46  50  8
47  51  8
48  52  8
51  53  8
52  53  8
18  6  5
22  7  6
23  8  5

$$$$
