 
  -OEChem-10192103372D

 72 76  0     0  0  0  0  0  0999 V2000
    4.5981   -0.2500    0.0000 O   0  0  0  0  0  0  0  0  0  0  0  0
    3.7320    1.2500    0.0000 O   0  0  0  0  0  0  0  0  0  0  0  0
    9.8564    2.7741    0.0000 O   0  0  0  0  0  0  0  0  0  0  0  0
    4.5981    4.7500    0.0000 O   0  0  0  0  0  0  0  0  0  0  0  0
   12.4641    0.2842    0.0000 O   0  0  0  0  0  0  0  0  0  0  0  0
    7.1962   -5.7500    0.0000 O   0  5  0  0  0  0  0  0  0  0  0  0
    8.0622   -4.2500    0.0000 O   0  0  0  0  0  0  0  0  0  0  0  0
    6.3301   -1.2500    0.0000 N   0  0  0  0  0  0  0  0  0  0  0  0
    4.5981    2.7500    0.0000 N   0  0  0  0  0  0  0  0  0  0  0  0
   10.7282    1.2775    0.0000 N   0  0  0  0  0  0  0  0  0  0  0  0
    5.4641   -1.7500    0.0000 N   0  0  0  0  0  0  0  0  0  0  0  0
    7.1962   -4.7500    0.0000 N   0  3  0  0  0  0  0  0  0  0  0  0
    7.1962    1.2500    0.0000 C   0  0  0  0  0  0  0  0  0  0  0  0
    7.1962    0.2500    0.0000 C   0  0  0  0  0  0  0  0  0  0  0  0
    6.3301   -0.2500    0.0000 C   0  0  0  0  0  0  0  0  0  0  0  0
    5.4641    1.2500    0.0000 C   0  0  0  0  0  0  0  0  0  0  0  0
    6.3301    1.7500    0.0000 C   0  0  0  0  0  0  0  0  0  0  0  0
    8.0901    1.7847    0.0000 C   0  0  0  0  0  0  0  0  0  0  0  0
    5.4641    0.2500    0.0000 C   0  0  0  0  0  0  0  0  0  0  0  0
    8.9962    1.2708    0.0000 C   0  0  0  0  0  0  0  0  0  0  0  0
    8.0901   -0.2847    0.0000 C   0  0  0  0  0  0  0  0  0  0  0  0
    8.9962    0.2292    0.0000 C   0  0  0  0  0  0  0  0  0  0  0  0
    4.5981    1.7500    0.0000 C   0  0  0  0  0  0  0  0  0  0  0  0
    9.8602    1.7742    0.0000 C   0  0  0  0  0  0  0  0  0  0  0  0
    3.7320    3.2500    0.0000 C   0  0  0  0  0  0  0  0  0  0  0  0
   11.5923    1.7808    0.0000 C   0  0  0  0  0  0  0  0  0  0  0  0
    5.4641   -2.7500    0.0000 C   0  0  0  0  0  0  0  0  0  0  0  0
    4.5981   -3.2500    0.0000 C   0  0  0  0  0  0  0  0  0  0  0  0
    3.7320    4.2500    0.0000 C   0  0  0  0  0  0  0  0  0  0  0  0
   12.4602    1.2842    0.0000 C   0  0  0  0  0  0  0  0  0  0  0  0
    2.8660    2.7500    0.0000 C   0  0  0  0  0  0  0  0  0  0  0  0
    6.3301   -3.2500    0.0000 C   0  0  0  0  0  0  0  0  0  0  0  0
   11.5884    2.7808    0.0000 C   0  0  0  0  0  0  0  0  0  0  0  0
    4.5981   -4.2500    0.0000 C   0  0  0  0  0  0  0  0  0  0  0  0
    6.3301   -4.2500    0.0000 C   0  0  0  0  0  0  0  0  0  0  0  0
    2.8660    4.7500    0.0000 C   0  0  0  0  0  0  0  0  0  0  0  0
    5.4641   -4.7500    0.0000 C   0  0  0  0  0  0  0  0  0  0  0  0
    3.7320   -2.7500    0.0000 C   0  0  0  0  0  0  0  0  0  0  0  0
    2.0000    3.2500    0.0000 C   0  0  0  0  0  0  0  0  0  0  0  0
   13.3243    1.7875    0.0000 C   0  0  0  0  0  0  0  0  0  0  0  0
   12.4525    3.2842    0.0000 C   0  0  0  0  0  0  0  0  0  0  0  0
    2.0000    4.2500    0.0000 C   0  0  0  0  0  0  0  0  0  0  0  0
   13.3205    2.7875    0.0000 C   0  0  0  0  0  0  0  0  0  0  0  0
    4.5981    5.7500    0.0000 C   0  0  0  0  0  0  0  0  0  0  0  0
   13.3320   -0.2125    0.0000 C   0  0  0  0  0  0  0  0  0  0  0  0
    6.3301    2.3700    0.0000 H   0  0  0  0  0  0  0  0  0  0  0  0
    8.0829    2.4046    0.0000 H   0  0  0  0  0  0  0  0  0  0  0  0
    8.0829   -0.9046    0.0000 H   0  0  0  0  0  0  0  0  0  0  0  0
    9.5319   -0.0829    0.0000 H   0  0  0  0  0  0  0  0  0  0  0  0
    5.1350    3.0600    0.0000 H   0  0  0  0  0  0  0  0  0  0  0  0
   10.7306    0.6575    0.0000 H   0  0  0  0  0  0  0  0  0  0  0  0
    4.0611    0.0600    0.0000 H   0  0  0  0  0  0  0  0  0  0  0  0
    2.8660    2.1300    0.0000 H   0  0  0  0  0  0  0  0  0  0  0  0
    6.8671   -2.9400    0.0000 H   0  0  0  0  0  0  0  0  0  0  0  0
   11.0503    3.0888    0.0000 H   0  0  0  0  0  0  0  0  0  0  0  0
    4.0611   -4.5600    0.0000 H   0  0  0  0  0  0  0  0  0  0  0  0
    2.8660    5.3700    0.0000 H   0  0  0  0  0  0  0  0  0  0  0  0
    5.4641   -5.3700    0.0000 H   0  0  0  0  0  0  0  0  0  0  0  0
    4.0420   -2.2131    0.0000 H   0  0  0  0  0  0  0  0  0  0  0  0
    3.1951   -2.4400    0.0000 H   0  0  0  0  0  0  0  0  0  0  0  0
    3.4220   -3.2869    0.0000 H   0  0  0  0  0  0  0  0  0  0  0  0
    1.4631    2.9400    0.0000 H   0  0  0  0  0  0  0  0  0  0  0  0
   13.8625    1.4796    0.0000 H   0  0  0  0  0  0  0  0  0  0  0  0
   12.4501    3.9042    0.0000 H   0  0  0  0  0  0  0  0  0  0  0  0
    1.4631    4.5600    0.0000 H   0  0  0  0  0  0  0  0  0  0  0  0
   13.8562    3.0996    0.0000 H   0  0  0  0  0  0  0  0  0  0  0  0
    5.2181    5.7500    0.0000 H   0  0  0  0  0  0  0  0  0  0  0  0
    4.5981    6.3700    0.0000 H   0  0  0  0  0  0  0  0  0  0  0  0
    3.9781    5.7500    0.0000 H   0  0  0  0  0  0  0  0  0  0  0  0
   13.0241   -0.7506    0.0000 H   0  0  0  0  0  0  0  0  0  0  0  0
   13.8702   -0.5204    0.0000 H   0  0  0  0  0  0  0  0  0  0  0  0
   13.6400    0.3256    0.0000 H   0  0  0  0  0  0  0  0  0  0  0  0
  1 19  1  0  0  0  0
  1 52  1  0  0  0  0
  2 23  2  0  0  0  0
  3 24  2  0  0  0  0
  4 29  1  0  0  0  0
  4 44  1  0  0  0  0
  5 30  1  0  0  0  0
  5 45  1  0  0  0  0
  6 12  1  0  0  0  0
  7 12  2  0  0  0  0
  8 11  2  0  0  0  0
  8 15  1  0  0  0  0
  9 23  1  0  0  0  0
  9 25  1  0  0  0  0
  9 50  1  0  0  0  0
 10 24  1  0  0  0  0
 10 26  1  0  0  0  0
 10 51  1  0  0  0  0
 11 27  1  0  0  0  0
 12 35  1  0  0  0  0
 13 14  1  0  0  0  0
 13 17  2  0  0  0  0
 13 18  1  0  0  0  0
 14 15  2  0  0  0  0
 14 21  1  0  0  0  0
 15 19  1  0  0  0  0
 16 17  1  0  0  0  0
 16 19  2  0  0  0  0
 16 23  1  0  0  0  0
 17 46  1  0  0  0  0
 18 20  2  0  0  0  0
 18 47  1  0  0  0  0
 20 22  1  0  0  0  0
 20 24  1  0  0  0  0
 21 22  2  0  0  0  0
 21 48  1  0  0  0  0
 22 49  1  0  0  0  0
 25 29  1  0  0  0  0
 25 31  2  0  0  0  0
 26 30  1  0  0  0  0
 26 33  2  0  0  0  0
 27 28  2  0  0  0  0
 27 32  1  0  0  0  0
 28 34  1  0  0  0  0
 28 38  1  0  0  0  0
 29 36  2  0  0  0  0
 30 40  2  0  0  0  0
 31 39  1  0  0  0  0
 31 53  1  0  0  0  0
 32 35  2  0  0  0  0
 32 54  1  0  0  0  0
 33 41  1  0  0  0  0
 33 55  1  0  0  0  0
 34 37  2  0  0  0  0
 34 56  1  0  0  0  0
 35 37  1  0  0  0  0
 36 42  1  0  0  0  0
 36 57  1  0  0  0  0
 37 58  1  0  0  0  0
 38 59  1  0  0  0  0
 38 60  1  0  0  0  0
 38 61  1  0  0  0  0
 39 42  2  0  0  0  0
 39 62  1  0  0  0  0
 40 43  1  0  0  0  0
 40 63  1  0  0  0  0
 41 43  2  0  0  0  0
 41 64  1  0  0  0  0
 42 65  1  0  0  0  0
 43 66  1  0  0  0  0
 44 67  1  0  0  0  0
 44 68  1  0  0  0  0
 44 69  1  0  0  0  0
 45 70  1  0  0  0  0
 45 71  1  0  0  0  0
 45 72  1  0  0  0  0
M  CHG  2   6  -1  12   1
M  END
> <PUBCHEM_COMPOUND_CID>
135966491

> <PUBCHEM_COMPOUND_CANONICALIZED>
1

> <PUBCHEM_CACTVS_COMPLEXITY>
1060

> <PUBCHEM_CACTVS_HBOND_ACCEPTOR>
9

> <PUBCHEM_CACTVS_HBOND_DONOR>
3

> <PUBCHEM_CACTVS_ROTATABLE_BOND>
8

> <PUBCHEM_CACTVS_SUBSKEYS>
AAADceB/uAAAAAAAAAAAAAAAAAAAAAAAAAAwYMGDAAAAAADBVAAAHgAcCAAADAyBmAIyxsLQRgCLAiVSUwCCCAAlIgAoiAEHbMoOJjbW9duFcWhm9BHY+YecyPCO6AADQAQaEADQAAaACDQgAAAAAAAAAA==

> <PUBCHEM_IUPAC_OPENEYE_NAME>
3-hydroxy-N2,N7-bis(2-methoxyphenyl)-4-(2-methyl-5-nitro-phenyl)azo-naphthalene-2,7-dicarboxamide

> <PUBCHEM_IUPAC_CAS_NAME>
3-hydroxy-N2,N7-bis(2-methoxyphenyl)-4-(2-methyl-5-nitrophenyl)azonaphthalene-2,7-dicarboxamide

> <PUBCHEM_IUPAC_NAME_MARKUP>
3-hydroxy-2-<I>N</I>,7-<I>N</I>-bis(2-methoxyphenyl)-4-[(2-methyl-5-nitrophenyl)diazenyl]naphthalene-2,7-dicarboxamide

> <PUBCHEM_IUPAC_NAME>
3-hydroxy-2-N,7-N-bis(2-methoxyphenyl)-4-[(2-methyl-5-nitrophenyl)diazenyl]naphthalene-2,7-dicarboxamide

> <PUBCHEM_IUPAC_SYSTEMATIC_NAME>
N2,N7-bis(2-methoxyphenyl)-4-[(2-methyl-5-nitro-phenyl)diazenyl]-3-oxidanyl-naphthalene-2,7-dicarboxamide

> <PUBCHEM_IUPAC_TRADITIONAL_NAME>
3-hydroxy-N,N'-bis(2-methoxyphenyl)-4-(2-methyl-5-nitro-phenyl)azo-naphthalene-2,7-dicarboxamide

> <PUBCHEM_IUPAC_INCHI>
InChI=1S/C33H27N5O7/c1-19-12-14-22(38(42)43)18-27(19)36-37-30-23-15-13-20(32(40)34-25-8-4-6-10-28(25)44-2)16-21(23)17-24(31(30)39)33(41)35-26-9-5-7-11-29(26)45-3/h4-18,39H,1-3H3,(H,34,40)(H,35,41)

> <PUBCHEM_IUPAC_INCHIKEY>
ATDBKMBFYAMCEW-UHFFFAOYSA-N

> <PUBCHEM_XLOGP3_AA>
7

> <PUBCHEM_EXACT_MASS>
605.19104822

> <PUBCHEM_MOLECULAR_FORMULA>
C33H27N5O7

> <PUBCHEM_MOLECULAR_WEIGHT>
605.6

> <PUBCHEM_OPENEYE_CAN_SMILES>
CC1=C(C=C(C=C1)[N+](=O)[O-])N=NC2=C3C=CC(=CC3=CC(=C2O)C(=O)NC4=CC=CC=C4OC)C(=O)NC5=CC=CC=C5OC

> <PUBCHEM_OPENEYE_ISO_SMILES>
CC1=C(C=C(C=C1)[N+](=O)[O-])N=NC2=C3C=CC(=CC3=CC(=C2O)C(=O)NC4=CC=CC=C4OC)C(=O)NC5=CC=CC=C5OC

> <PUBCHEM_CACTVS_TPSA>
167

> <PUBCHEM_MONOISOTOPIC_WEIGHT>
605.19104822

> <PUBCHEM_TOTAL_CHARGE>
0

> <PUBCHEM_HEAVY_ATOM_COUNT>
45

> <PUBCHEM_ATOM_DEF_STEREO_COUNT>
0

> <PUBCHEM_ATOM_UDEF_STEREO_COUNT>
0

> <PUBCHEM_BOND_DEF_STEREO_COUNT>
0

> <PUBCHEM_BOND_UDEF_STEREO_COUNT>
0

> <PUBCHEM_ISOTOPIC_ATOM_COUNT>
0

> <PUBCHEM_COMPONENT_COUNT>
1

> <PUBCHEM_CACTVS_TAUTO_COUNT>
-1

> <PUBCHEM_COORDINATE_TYPE>
1
5
255

> <PUBCHEM_BONDANNOTATIONS>
13  14  8
13  17  8
13  18  8
14  15  8
14  21  8
15  19  8
16  17  8
16  19  8
18  20  8
20  22  8
21  22  8
25  29  8
25  31  8
26  30  8
26  33  8
27  28  8
27  32  8
28  34  8
29  36  8
30  40  8
31  39  8
32  35  8
33  41  8
34  37  8
35  37  8
36  42  8
39  42  8
40  43  8
41  43  8

$$$$
