 
  -OEChem-10192103262D

 51 53  0     0  0  0  0  0  0999 V2000
    4.2690   -3.5000    0.0000 O   0  0  0  0  0  0  0  0  0  0  0  0
    2.5369   -0.5000    0.0000 O   0  0  0  0  0  0  0  0  0  0  0  0
    2.5369   -2.5000    0.0000 O   0  0  0  0  0  0  0  0  0  0  0  0
   10.3312   -4.0000    0.0000 O   0  0  0  0  0  0  0  0  0  0  0  0
    8.5991   -5.0000    0.0000 O   0  0  0  0  0  0  0  0  0  0  0  0
    6.8671    4.0000    0.0000 O   0  0  0  0  0  0  0  0  0  0  0  0
    3.4030    4.0000    0.0000 O   0  0  0  0  0  0  0  0  0  0  0  0
    5.1350    5.0000    0.0000 O   0  0  0  0  0  0  0  0  0  0  0  0
    5.1350   -2.0000    0.0000 C   0  0  0  0  0  0  0  0  0  0  0  0
    4.2690   -0.5000    0.0000 C   0  0  0  0  0  0  0  0  0  0  0  0
    5.1350   -1.0000    0.0000 C   0  0  0  0  0  0  0  0  0  0  0  0
    7.7331   -2.5000    0.0000 C   0  0  0  0  0  0  0  0  0  0  0  0
    4.2690   -2.5000    0.0000 C   0  0  0  0  0  0  0  0  0  0  0  0
    3.4030   -1.0000    0.0000 C   0  0  0  0  0  0  0  0  0  0  0  0
    6.0010   -2.5000    0.0000 C   0  0  0  0  0  0  0  0  0  0  0  0
    3.4030   -2.0000    0.0000 C   0  0  0  0  0  0  0  0  0  0  0  0
    9.4651   -2.5000    0.0000 C   0  0  0  0  0  0  0  0  0  0  0  0
    6.8671   -2.0000    0.0000 C   0  0  0  0  0  0  0  0  0  0  0  0
    8.5991   -2.0000    0.0000 C   0  0  0  0  0  0  0  0  0  0  0  0
    4.2690    0.5000    0.0000 C   0  0  0  0  0  0  0  0  0  0  0  0
    7.7331   -3.5000    0.0000 C   0  0  0  0  0  0  0  0  0  0  0  0
    9.4651   -3.5000    0.0000 C   0  0  0  0  0  0  0  0  0  0  0  0
    5.1350    2.0000    0.0000 C   0  0  0  0  0  0  0  0  0  0  0  0
    5.1350    1.0000    0.0000 C   0  0  0  0  0  0  0  0  0  0  0  0
    8.5991   -4.0000    0.0000 C   0  0  0  0  0  0  0  0  0  0  0  0
   10.3312   -2.0000    0.0000 C   0  0  0  0  0  0  0  0  0  0  0  0
    4.2690    2.5000    0.0000 C   0  0  0  0  0  0  0  0  0  0  0  0
    6.0010    2.5000    0.0000 C   0  0  0  0  0  0  0  0  0  0  0  0
    6.0010    3.5000    0.0000 C   0  0  0  0  0  0  0  0  0  0  0  0
    4.2690    3.5000    0.0000 C   0  0  0  0  0  0  0  0  0  0  0  0
    5.1350    4.0000    0.0000 C   0  0  0  0  0  0  0  0  0  0  0  0
    5.6720   -0.6900    0.0000 H   0  0  0  0  0  0  0  0  0  0  0  0
    6.0010   -3.1200    0.0000 H   0  0  0  0  0  0  0  0  0  0  0  0
    6.8671   -1.3800    0.0000 H   0  0  0  0  0  0  0  0  0  0  0  0
    3.7320    0.8100    0.0000 H   0  0  0  0  0  0  0  0  0  0  0  0
    8.5991   -1.3800    0.0000 H   0  0  0  0  0  0  0  0  0  0  0  0
    7.1962   -3.8100    0.0000 H   0  0  0  0  0  0  0  0  0  0  0  0
    5.6720    0.6900    0.0000 H   0  0  0  0  0  0  0  0  0  0  0  0
   10.6412   -2.5369    0.0000 H   0  0  0  0  0  0  0  0  0  0  0  0
   10.8681   -1.6900    0.0000 H   0  0  0  0  0  0  0  0  0  0  0  0
   10.0212   -1.4631    0.0000 H   0  0  0  0  0  0  0  0  0  0  0  0
    3.7320    2.1900    0.0000 H   0  0  0  0  0  0  0  0  0  0  0  0
    6.5380    2.1900    0.0000 H   0  0  0  0  0  0  0  0  0  0  0  0
    3.7320   -3.8100    0.0000 H   0  0  0  0  0  0  0  0  0  0  0  0
    2.0000   -0.8100    0.0000 H   0  0  0  0  0  0  0  0  0  0  0  0
    2.5369   -3.1200    0.0000 H   0  0  0  0  0  0  0  0  0  0  0  0
   10.8681   -3.6900    0.0000 H   0  0  0  0  0  0  0  0  0  0  0  0
    8.0622   -5.3100    0.0000 H   0  0  0  0  0  0  0  0  0  0  0  0
    7.4040    3.6900    0.0000 H   0  0  0  0  0  0  0  0  0  0  0  0
    3.4030    4.6200    0.0000 H   0  0  0  0  0  0  0  0  0  0  0  0
    5.6720    5.3100    0.0000 H   0  0  0  0  0  0  0  0  0  0  0  0
  1 13  1  0  0  0  0
  1 44  1  0  0  0  0
  2 14  1  0  0  0  0
  2 45  1  0  0  0  0
  3 16  1  0  0  0  0
  3 46  1  0  0  0  0
  4 22  1  0  0  0  0
  4 47  1  0  0  0  0
  5 25  1  0  0  0  0
  5 48  1  0  0  0  0
  6 29  1  0  0  0  0
  6 49  1  0  0  0  0
  7 30  1  0  0  0  0
  7 50  1  0  0  0  0
  8 31  1  0  0  0  0
  8 51  1  0  0  0  0
  9 11  2  0  0  0  0
  9 13  1  0  0  0  0
  9 15  1  0  0  0  0
 10 11  1  0  0  0  0
 10 14  2  0  0  0  0
 10 20  1  0  0  0  0
 11 32  1  0  0  0  0
 12 18  1  0  0  0  0
 12 19  1  0  0  0  0
 12 21  2  0  0  0  0
 13 16  2  0  0  0  0
 14 16  1  0  0  0  0
 15 18  2  0  0  0  0
 15 33  1  0  0  0  0
 17 19  2  0  0  0  0
 17 22  1  0  0  0  0
 17 26  1  0  0  0  0
 18 34  1  0  0  0  0
 19 36  1  0  0  0  0
 20 24  2  0  0  0  0
 20 35  1  0  0  0  0
 21 25  1  0  0  0  0
 21 37  1  0  0  0  0
 22 25  2  0  0  0  0
 23 24  1  0  0  0  0
 23 27  2  0  0  0  0
 23 28  1  0  0  0  0
 24 38  1  0  0  0  0
 26 39  1  0  0  0  0
 26 40  1  0  0  0  0
 26 41  1  0  0  0  0
 27 30  1  0  0  0  0
 27 42  1  0  0  0  0
 28 29  2  0  0  0  0
 28 43  1  0  0  0  0
 29 31  1  0  0  0  0
 30 31  2  0  0  0  0
M  END
> <PUBCHEM_COMPOUND_CID>
59273200

> <PUBCHEM_COMPOUND_CANONICALIZED>
1

> <PUBCHEM_CACTVS_COMPLEXITY>
627

> <PUBCHEM_CACTVS_HBOND_ACCEPTOR>
8

> <PUBCHEM_CACTVS_HBOND_DONOR>
8

> <PUBCHEM_CACTVS_ROTATABLE_BOND>
4

> <PUBCHEM_CACTVS_SUBSKEYS>
AAADceB4PAAAAAAAAAAAAAAAAAAAAAAAAAAwYMAAAAAAAAABUAAAGgAACAAADASAmAAyBoAAAgCAAiBCAAACAAAgIAAIiAAGiIgJJyKCERKAcAElwBUJmAeA4HQOIAADCAAIQABAAAYQABCAAAAAAAAAAA==

> <PUBCHEM_IUPAC_OPENEYE_NAME>
4-[(E)-2-(3,4-dihydroxy-5-methyl-phenyl)vinyl]-6-[(E)-2-(3,4,5-trihydroxyphenyl)vinyl]benzene-1,2,3-triol

> <PUBCHEM_IUPAC_CAS_NAME>
4-[(E)-2-(3,4-dihydroxy-5-methylphenyl)ethenyl]-6-[(E)-2-(3,4,5-trihydroxyphenyl)ethenyl]benzene-1,2,3-triol

> <PUBCHEM_IUPAC_NAME_MARKUP>
4-[(<I>E</I>)-2-(3,4-dihydroxy-5-methylphenyl)ethenyl]-6-[(<I>E</I>)-2-(3,4,5-trihydroxyphenyl)ethenyl]benzene-1,2,3-triol

> <PUBCHEM_IUPAC_NAME>
4-[(E)-2-(3,4-dihydroxy-5-methylphenyl)ethenyl]-6-[(E)-2-(3,4,5-trihydroxyphenyl)ethenyl]benzene-1,2,3-triol

> <PUBCHEM_IUPAC_SYSTEMATIC_NAME>
4-[(E)-2-[3-methyl-4,5-bis(oxidanyl)phenyl]ethenyl]-6-[(E)-2-[3,4,5-tris(oxidanyl)phenyl]ethenyl]benzene-1,2,3-triol

> <PUBCHEM_IUPAC_TRADITIONAL_NAME>
4-[(E)-2-(3,4-dihydroxy-5-methyl-phenyl)vinyl]-6-[(E)-2-(3,4,5-trihydroxyphenyl)vinyl]pyrogallol

> <PUBCHEM_IUPAC_INCHI>
InChI=1S/C23H20O8/c1-11-6-12(7-16(24)19(11)27)2-4-14-10-15(21(29)23(31)20(14)28)5-3-13-8-17(25)22(30)18(26)9-13/h2-10,24-31H,1H3/b4-2+,5-3+

> <PUBCHEM_IUPAC_INCHIKEY>
MTHPPXCSJDBRAI-ZUVMSYQZSA-N

> <PUBCHEM_XLOGP3_AA>
4

> <PUBCHEM_EXACT_MASS>
424.11581759

> <PUBCHEM_MOLECULAR_FORMULA>
C23H20O8

> <PUBCHEM_MOLECULAR_WEIGHT>
424.4

> <PUBCHEM_OPENEYE_CAN_SMILES>
CC1=CC(=CC(=C1O)O)C=CC2=CC(=C(C(=C2O)O)O)C=CC3=CC(=C(C(=C3)O)O)O

> <PUBCHEM_OPENEYE_ISO_SMILES>
CC1=CC(=CC(=C1O)O)/C=C/C2=CC(=C(C(=C2O)O)O)/C=C/C3=CC(=C(C(=C3)O)O)O

> <PUBCHEM_CACTVS_TPSA>
162

> <PUBCHEM_MONOISOTOPIC_WEIGHT>
424.11581759

> <PUBCHEM_TOTAL_CHARGE>
0

> <PUBCHEM_HEAVY_ATOM_COUNT>
31

> <PUBCHEM_ATOM_DEF_STEREO_COUNT>
0

> <PUBCHEM_ATOM_UDEF_STEREO_COUNT>
0

> <PUBCHEM_BOND_DEF_STEREO_COUNT>
2

> <PUBCHEM_BOND_UDEF_STEREO_COUNT>
0

> <PUBCHEM_ISOTOPIC_ATOM_COUNT>
0

> <PUBCHEM_COMPONENT_COUNT>
1

> <PUBCHEM_CACTVS_TAUTO_COUNT>
-1

> <PUBCHEM_COORDINATE_TYPE>
1
5
255

> <PUBCHEM_BONDANNOTATIONS>
10  11  8
10  14  8
12  19  8
12  21  8
13  16  8
14  16  8
17  19  8
17  22  8
21  25  8
22  25  8
23  27  8
23  28  8
27  30  8
28  29  8
29  31  8
30  31  8
9  11  8
9  13  8

$$$$
