 
  -OEChem-10192104282D

 35 35  0     1  0  0  0  0  0999 V2000
    3.0000    0.8450    0.0000 S   0  0  0  0  0  0  0  0  0  0  0  0
    4.7320   -0.1550    0.0000 O   0  0  0  0  0  0  0  0  0  0  0  0
    3.0000   -2.1550    0.0000 O   0  0  0  0  0  0  0  0  0  0  0  0
    6.4641   -0.1550    0.0000 O   0  0  0  0  0  0  0  0  0  0  0  0
    4.7320   -3.1550    0.0000 O   0  0  0  0  0  0  0  0  0  0  0  0
    6.4641   -2.1550    0.0000 O   0  0  0  0  0  0  0  0  0  0  0  0
    3.0000    1.8450    0.0000 O   0  5  0  0  0  0  0  0  0  0  0  0
    2.0000    0.8450    0.0000 O   0  0  0  0  0  0  0  0  0  0  0  0
    4.0000    0.8450    0.0000 O   0  0  0  0  0  0  0  0  0  0  0  0
    8.1962    0.8450    0.0000 O   0  0  0  0  0  0  0  0  0  0  0  0
    8.1962    2.8450    0.0000 O   0  0  0  0  0  0  0  0  0  0  0  0
    3.8660   -1.6550    0.0000 C   0  0  2  0  0  0  0  0  0  0  0  0
    3.8660   -0.6550    0.0000 C   0  0  1  0  0  0  0  0  0  0  0  0
    4.7320   -2.1550    0.0000 C   0  0  1  0  0  0  0  0  0  0  0  0
    5.5981   -1.6550    0.0000 C   0  0  2  0  0  0  0  0  0  0  0  0
    5.5981   -0.6550    0.0000 C   0  0  2  0  0  0  0  0  0  0  0  0
    3.0000   -0.1550    0.0000 C   0  0  0  0  0  0  0  0  0  0  0  0
    6.4641    0.8450    0.0000 C   0  0  0  0  0  0  0  0  0  0  0  0
    7.3301    1.3450    0.0000 C   0  0  0  0  0  0  0  0  0  0  0  0
    7.3301    2.3450    0.0000 C   0  0  0  0  0  0  0  0  0  0  0  0
    3.8660   -2.2750    0.0000 H   0  0  0  0  0  0  0  0  0  0  0  0
    3.8660   -0.0350    0.0000 H   0  0  0  0  0  0  0  0  0  0  0  0
    4.1951   -2.4650    0.0000 H   0  0  0  0  0  0  0  0  0  0  0  0
    5.5981   -2.2750    0.0000 H   0  0  0  0  0  0  0  0  0  0  0  0
    5.5981   -0.0350    0.0000 H   0  0  0  0  0  0  0  0  0  0  0  0
    2.3894   -0.0473    0.0000 H   0  0  0  0  0  0  0  0  0  0  0  0
    2.7880   -0.7376    0.0000 H   0  0  0  0  0  0  0  0  0  0  0  0
    2.4631   -1.8450    0.0000 H   0  0  0  0  0  0  0  0  0  0  0  0
    5.2690   -3.4650    0.0000 H   0  0  0  0  0  0  0  0  0  0  0  0
    7.0010   -1.8450    0.0000 H   0  0  0  0  0  0  0  0  0  0  0  0
    6.2520    1.4276    0.0000 H   0  0  0  0  0  0  0  0  0  0  0  0
    5.8535    0.7373    0.0000 H   0  0  0  0  0  0  0  0  0  0  0  0
    7.1181    2.9276    0.0000 H   0  0  0  0  0  0  0  0  0  0  0  0
    6.7196    2.2373    0.0000 H   0  0  0  0  0  0  0  0  0  0  0  0
    8.1962    3.4650    0.0000 H   0  0  0  0  0  0  0  0  0  0  0  0
  1  7  1  0  0  0  0
  1  8  2  0  0  0  0
  1  9  2  0  0  0  0
  1 17  1  0  0  0  0
  2 13  1  0  0  0  0
  2 16  1  0  0  0  0
 12  3  1  6  0  0  0
  3 28  1  0  0  0  0
 16  4  1  6  0  0  0
  4 18  1  0  0  0  0
 14  5  1  1  0  0  0
  5 29  1  0  0  0  0
 15  6  1  6  0  0  0
  6 30  1  0  0  0  0
 10 19  2  0  0  0  0
 11 20  1  0  0  0  0
 11 35  1  0  0  0  0
 12 13  1  0  0  0  0
 12 14  1  0  0  0  0
 12 21  1  0  0  0  0
 13 17  1  1  0  0  0
 13 22  1  0  0  0  0
 14 15  1  0  0  0  0
 14 23  1  0  0  0  0
 15 16  1  0  0  0  0
 15 24  1  0  0  0  0
 16 25  1  0  0  0  0
 17 26  1  0  0  0  0
 17 27  1  0  0  0  0
 18 19  1  0  0  0  0
 18 31  1  0  0  0  0
 18 32  1  0  0  0  0
 19 20  1  0  0  0  0
 20 33  1  0  0  0  0
 20 34  1  0  0  0  0
M  CHG  1   7  -1
M  END
> <PUBCHEM_COMPOUND_CID>
91820441

> <PUBCHEM_COMPOUND_CANONICALIZED>
1

> <PUBCHEM_CACTVS_COMPLEXITY>
415

> <PUBCHEM_CACTVS_HBOND_ACCEPTOR>
10

> <PUBCHEM_CACTVS_HBOND_DONOR>
4

> <PUBCHEM_CACTVS_ROTATABLE_BOND>
5

> <PUBCHEM_CACTVS_SUBSKEYS>
AAADccBwPABAAAAAAAAAAAAAAAAAAAAAAAAkAAAAAAAAAAAAAAAAGgQACAAACBS0wAOACAAABgIIAIAQAHJAAAAAAAAAAABAAAAREAIAAAQiQAAFAAAHAAHAYAwAAAAAAAAAAAAAAAAAAAAAAAAAAAAAAA==

> <PUBCHEM_IUPAC_OPENEYE_NAME>
[(2S,3S,4S,5R,6S)-3,4,5-trihydroxy-6-(3-hydroxy-2-oxo-propoxy)tetrahydropyran-2-yl]methanesulfonate

> <PUBCHEM_IUPAC_CAS_NAME>
[(2S,3S,4S,5R,6S)-3,4,5-trihydroxy-6-(3-hydroxy-2-oxopropoxy)-2-oxanyl]methanesulfonate

> <PUBCHEM_IUPAC_NAME_MARKUP>
[(2<I>S</I>,3<I>S</I>,4<I>S</I>,5<I>R</I>,6<I>S</I>)-3,4,5-trihydroxy-6-(3-hydroxy-2-oxopropoxy)oxan-2-yl]methanesulfonate

> <PUBCHEM_IUPAC_NAME>
[(2S,3S,4S,5R,6S)-3,4,5-trihydroxy-6-(3-hydroxy-2-oxopropoxy)oxan-2-yl]methanesulfonate

> <PUBCHEM_IUPAC_SYSTEMATIC_NAME>
[(2S,3S,4S,5R,6S)-3,4,5-tris(oxidanyl)-6-(3-oxidanyl-2-oxidanylidene-propoxy)oxan-2-yl]methanesulfonate

> <PUBCHEM_IUPAC_TRADITIONAL_NAME>
[(2S,3S,4S,5R,6S)-3,4,5-trihydroxy-6-(3-hydroxy-2-keto-propoxy)tetrahydropyran-2-yl]methanesulfonate

> <PUBCHEM_IUPAC_INCHI>
InChI=1S/C9H16O10S/c10-1-4(11)2-18-9-8(14)7(13)6(12)5(19-9)3-20(15,16)17/h5-10,12-14H,1-3H2,(H,15,16,17)/p-1/t5-,6-,7+,8-,9+/m1/s1

> <PUBCHEM_IUPAC_INCHIKEY>
QIDXYXWDZKLVBN-ZEBDFXRSSA-M

> <PUBCHEM_XLOGP3_AA>
-4

> <PUBCHEM_EXACT_MASS>
315.03859284

> <PUBCHEM_MOLECULAR_FORMULA>
C9H15O10S-

> <PUBCHEM_MOLECULAR_WEIGHT>
315.28

> <PUBCHEM_OPENEYE_CAN_SMILES>
C(C1C(C(C(C(O1)OCC(=O)CO)O)O)O)S(=O)(=O)[O-]

> <PUBCHEM_OPENEYE_ISO_SMILES>
C([C@@H]1[C@H]([C@@H]([C@H]([C@H](O1)OCC(=O)CO)O)O)O)S(=O)(=O)[O-]

> <PUBCHEM_CACTVS_TPSA>
182

> <PUBCHEM_MONOISOTOPIC_WEIGHT>
315.03859284

> <PUBCHEM_TOTAL_CHARGE>
-1

> <PUBCHEM_HEAVY_ATOM_COUNT>
20

> <PUBCHEM_ATOM_DEF_STEREO_COUNT>
5

> <PUBCHEM_ATOM_UDEF_STEREO_COUNT>
0

> <PUBCHEM_BOND_DEF_STEREO_COUNT>
0

> <PUBCHEM_BOND_UDEF_STEREO_COUNT>
0

> <PUBCHEM_ISOTOPIC_ATOM_COUNT>
0

> <PUBCHEM_COMPONENT_COUNT>
1

> <PUBCHEM_CACTVS_TAUTO_COUNT>
-1

> <PUBCHEM_COORDINATE_TYPE>
1
5
255

> <PUBCHEM_BONDANNOTATIONS>
13  17  5
12  3  6
16  4  6
14  5  5
15  6  6

$$$$
