 
  -OEChem-10192104082D

 78 80  0     1  0  0  0  0  0999 V2000
    8.0420    0.2500    0.0000 O   0  0  0  0  0  0  0  0  0  0  0  0
    4.8100    0.1160    0.0000 O   0  0  0  0  0  0  0  0  0  0  0  0
    5.8100   -1.6160    0.0000 O   0  0  0  0  0  0  0  0  0  0  0  0
    9.7741    0.2500    0.0000 O   0  0  0  0  0  0  0  0  0  0  0  0
    8.9081   -2.2500    0.0000 O   0  0  0  0  0  0  0  0  0  0  0  0
    7.1760   -2.2500    0.0000 O   0  0  0  0  0  0  0  0  0  0  0  0
    5.4440    0.7500    0.0000 O   0  0  0  0  0  0  0  0  0  0  0  0
    9.7741   -2.7500    0.0000 O   0  0  0  0  0  0  0  0  0  0  0  0
    5.3100   -2.4820    0.0000 O   0  0  0  0  0  0  0  0  0  0  0  0
    3.3100   -2.4820    0.0000 O   0  0  0  0  0  0  0  0  0  0  0  0
   11.5062    0.2500    0.0000 O   0  0  0  0  0  0  0  0  0  0  0  0
    2.3100   -0.7500    0.0000 O   0  0  0  0  0  0  0  0  0  0  0  0
    8.0420    2.2500    0.0000 O   0  0  0  0  0  0  0  0  0  0  0  0
    8.0420    1.2500    0.0000 O   0  0  0  0  0  0  0  0  0  0  0  0
    2.3100    0.9821    0.0000 O   0  0  0  0  0  0  0  0  0  0  0  0
   12.3722   -0.2500    0.0000 O   0  0  0  0  0  0  0  0  0  0  0  0
   13.2382    1.2500    0.0000 O   0  0  0  0  0  0  0  0  0  0  0  0
   11.5062   -1.7500    0.0000 N   0  0  0  0  0  0  0  0  0  0  0  0
   11.5062    1.2500    0.0000 N   0  0  0  0  0  0  0  0  0  0  0  0
   12.3722    2.7500    0.0000 N   0  0  0  0  0  0  0  0  0  0  0  0
    6.3100   -0.7500    0.0000 C   0  0  1  0  0  0  0  0  0  0  0  0
    8.0420   -0.7500    0.0000 C   0  0  1  0  0  0  0  0  0  0  0  0
    8.9081   -1.2500    0.0000 C   0  0  1  0  0  0  0  0  0  0  0  0
    7.1760   -1.2500    0.0000 C   0  0  2  0  0  0  0  0  0  0  0  0
    5.3100   -0.7500    0.0000 C   0  0  1  0  0  0  0  0  0  0  0  0
    6.3100    0.2500    0.0000 C   0  0  2  0  0  0  0  0  0  0  0  0
    9.7741   -1.7500    0.0000 C   0  0  1  0  0  0  0  0  0  0  0  0
    7.1760    0.7500    0.0000 C   0  0  1  0  0  0  0  0  0  0  0  0
    8.9081   -0.2500    0.0000 C   0  0  1  0  0  0  0  0  0  0  0  0
    4.8100   -1.6160    0.0000 C   0  0  1  0  0  0  0  0  0  0  0  0
   10.6401   -1.2500    0.0000 C   0  0  1  0  0  0  0  0  0  0  0  0
    3.8100   -1.6160    0.0000 C   0  0  2  0  0  0  0  0  0  0  0  0
   10.6401   -0.2500    0.0000 C   0  0  2  0  0  0  0  0  0  0  0  0
    3.8100    0.1160    0.0000 C   0  0  1  0  0  0  0  0  0  0  0  0
    3.3100   -0.7500    0.0000 C   0  0  2  0  0  0  0  0  0  0  0  0
    7.1760    1.7500    0.0000 C   0  0  0  0  0  0  0  0  0  0  0  0
    8.1920    0.4000    0.0000 C   0  0  0  0  0  0  0  0  0  0  0  0
    3.3100    0.9821    0.0000 C   0  0  0  0  0  0  0  0  0  0  0  0
   12.3722   -1.2500    0.0000 C   0  0  0  0  0  0  0  0  0  0  0  0
   13.2382   -1.7500    0.0000 C   0  0  0  0  0  0  0  0  0  0  0  0
   12.3722    1.7500    0.0000 C   0  0  0  0  0  0  0  0  0  0  0  0
    8.0420   -1.6000    0.0000 H   0  0  0  0  0  0  0  0  0  0  0  0
    6.6391   -1.5600    0.0000 H   0  0  0  0  0  0  0  0  0  0  0  0
    5.7350   -0.0139    0.0000 H   0  0  0  0  0  0  0  0  0  0  0  0
    6.3100    0.8700    0.0000 H   0  0  0  0  0  0  0  0  0  0  0  0
   10.3110   -2.0600    0.0000 H   0  0  0  0  0  0  0  0  0  0  0  0
    7.7130    1.0600    0.0000 H   0  0  0  0  0  0  0  0  0  0  0  0
    8.9741    0.3665    0.0000 H   0  0  0  0  0  0  0  0  0  0  0  0
    5.4300   -1.6160    0.0000 H   0  0  0  0  0  0  0  0  0  0  0  0
   10.6401   -1.8700    0.0000 H   0  0  0  0  0  0  0  0  0  0  0  0
    4.1200   -2.1530    0.0000 H   0  0  0  0  0  0  0  0  0  0  0  0
   11.1771   -0.5600    0.0000 H   0  0  0  0  0  0  0  0  0  0  0  0
    4.1200    0.6530    0.0000 H   0  0  0  0  0  0  0  0  0  0  0  0
    3.0000   -1.2869    0.0000 H   0  0  0  0  0  0  0  0  0  0  0  0
    6.1200   -2.1530    0.0000 H   0  0  0  0  0  0  0  0  0  0  0  0
    6.9640    2.3326    0.0000 H   0  0  0  0  0  0  0  0  0  0  0  0
    6.5654    1.6423    0.0000 H   0  0  0  0  0  0  0  0  0  0  0  0
    7.5772    0.4799    0.0000 H   0  0  0  0  0  0  0  0  0  0  0  0
    7.9318   -0.1627    0.0000 H   0  0  0  0  0  0  0  0  0  0  0  0
    8.3711   -2.5600    0.0000 H   0  0  0  0  0  0  0  0  0  0  0  0
    6.6391   -2.5600    0.0000 H   0  0  0  0  0  0  0  0  0  0  0  0
    5.4440    1.3700    0.0000 H   0  0  0  0  0  0  0  0  0  0  0  0
   11.5062   -2.3700    0.0000 H   0  0  0  0  0  0  0  0  0  0  0  0
   10.3110   -3.0600    0.0000 H   0  0  0  0  0  0  0  0  0  0  0  0
    3.8926    1.1941    0.0000 H   0  0  0  0  0  0  0  0  0  0  0  0
    3.2023    1.5926    0.0000 H   0  0  0  0  0  0  0  0  0  0  0  0
    5.0000   -3.0190    0.0000 H   0  0  0  0  0  0  0  0  0  0  0  0
    2.6900   -2.4820    0.0000 H   0  0  0  0  0  0  0  0  0  0  0  0
    2.0000   -1.2869    0.0000 H   0  0  0  0  0  0  0  0  0  0  0  0
    8.0420    2.8700    0.0000 H   0  0  0  0  0  0  0  0  0  0  0  0
    8.5790    1.5600    0.0000 H   0  0  0  0  0  0  0  0  0  0  0  0
    2.0000    1.5190    0.0000 H   0  0  0  0  0  0  0  0  0  0  0  0
   10.9692    1.5600    0.0000 H   0  0  0  0  0  0  0  0  0  0  0  0
   12.9282   -2.2869    0.0000 H   0  0  0  0  0  0  0  0  0  0  0  0
   13.7751   -2.0600    0.0000 H   0  0  0  0  0  0  0  0  0  0  0  0
   13.5482   -1.2131    0.0000 H   0  0  0  0  0  0  0  0  0  0  0  0
   12.9091    3.0600    0.0000 H   0  0  0  0  0  0  0  0  0  0  0  0
   11.8352    3.0600    0.0000 H   0  0  0  0  0  0  0  0  0  0  0  0
  1 22  1  0  0  0  0
  1 28  1  0  0  0  0
  2 25  1  0  0  0  0
  2 34  1  0  0  0  0
 21  3  1  1  0  0  0
  3 55  1  0  0  0  0
  4 29  1  0  0  0  0
  4 33  1  0  0  0  0
 23  5  1  6  0  0  0
  5 60  1  0  0  0  0
 24  6  1  6  0  0  0
  6 61  1  0  0  0  0
 26  7  1  1  0  0  0
  7 62  1  0  0  0  0
 27  8  1  1  0  0  0
  8 64  1  0  0  0  0
 30  9  1  6  0  0  0
  9 67  1  0  0  0  0
 32 10  1  1  0  0  0
 10 68  1  0  0  0  0
 11 19  1  0  0  0  0
 33 11  1  6  0  0  0
 35 12  1  1  0  0  0
 12 69  1  0  0  0  0
 13 36  1  0  0  0  0
 13 70  1  0  0  0  0
 14 37  1  0  0  0  0
 14 71  1  0  0  0  0
 15 38  1  0  0  0  0
 15 72  1  0  0  0  0
 16 39  2  0  0  0  0
 17 41  2  0  0  0  0
 31 18  1  1  0  0  0
 18 39  1  0  0  0  0
 18 63  1  0  0  0  0
 19 41  1  0  0  0  0
 19 73  1  0  0  0  0
 20 41  1  0  0  0  0
 20 77  1  0  0  0  0
 20 78  1  0  0  0  0
 21 24  1  0  0  0  0
 21 25  1  0  0  0  0
 21 26  1  0  0  0  0
 22 23  1  0  0  0  0
 22 24  1  0  0  0  0
 22 42  1  6  0  0  0
 23 27  1  0  0  0  0
 23 29  1  0  0  0  0
 24 43  1  0  0  0  0
 25 30  1  0  0  0  0
 25 44  1  6  0  0  0
 26 28  1  0  0  0  0
 26 45  1  0  0  0  0
 27 31  1  0  0  0  0
 27 46  1  0  0  0  0
 28 36  1  1  0  0  0
 28 47  1  0  0  0  0
 29 37  1  1  0  0  0
 29 48  1  0  0  0  0
 30 32  1  0  0  0  0
 30 49  1  0  0  0  0
 31 33  1  0  0  0  0
 31 50  1  0  0  0  0
 32 35  1  0  0  0  0
 32 51  1  0  0  0  0
 33 52  1  0  0  0  0
 34 35  1  0  0  0  0
 34 38  1  1  0  0  0
 34 53  1  0  0  0  0
 35 54  1  0  0  0  0
 36 56  1  0  0  0  0
 36 57  1  0  0  0  0
 37 58  1  0  0  0  0
 37 59  1  0  0  0  0
 38 65  1  0  0  0  0
 38 66  1  0  0  0  0
 39 40  1  0  0  0  0
 40 74  1  0  0  0  0
 40 75  1  0  0  0  0
 40 76  1  0  0  0  0
M  END
> <PUBCHEM_COMPOUND_CID>
88148322

> <PUBCHEM_COMPOUND_CANONICALIZED>
1

> <PUBCHEM_CACTVS_COMPLEXITY>
934

> <PUBCHEM_CACTVS_HBOND_ACCEPTOR>
17

> <PUBCHEM_CACTVS_HBOND_DONOR>
14

> <PUBCHEM_CACTVS_ROTATABLE_BOND>
8

> <PUBCHEM_CACTVS_SUBSKEYS>
AAADcfB7PgAAAAAAAAAAAAAAAAAAAAAAAAAkSJAAAAAAAAAAAAAAHgAUCAAADHzxgAcDCALQBgAIAAEQEAAAAAAAAAAAAIAIAAATEAIAgAAHQAAHFgCXAAHw8P8OAAAAAAAAAAAAAAAAAAAAAAAAAAAAAA==

> <PUBCHEM_IUPAC_OPENEYE_NAME>
N-[(2R,3S,4R,5S,6R)-4,5-dihydroxy-6-(hydroxymethyl)-5-[(2R,3S,4S,5S,6R)-3,4,5-trihydroxy-6-(hydroxymethyl)-4-[(2R,3R,4S,5R,6R)-3,4,5-trihydroxy-6-(hydroxymethyl)tetrahydropyran-2-yl]tetrahydropyran-2-yl]-2-ureidooxy-tetrahydropyran-3-yl]acetamide

> <PUBCHEM_IUPAC_CAS_NAME>
N-[(2R,3S,4R,5S,6R)-2-(carbamoylamino)oxy-4,5-dihydroxy-6-(hydroxymethyl)-5-[(2R,3S,4S,5S,6R)-3,4,5-trihydroxy-6-(hydroxymethyl)-4-[(2R,3R,4S,5R,6R)-3,4,5-trihydroxy-6-(hydroxymethyl)-2-oxanyl]-2-oxanyl]-3-oxanyl]acetamide

> <PUBCHEM_IUPAC_NAME_MARKUP>
<I>N</I>-[(2<I>R</I>,3<I>S</I>,4<I>R</I>,5<I>S</I>,6<I>R</I>)-2-(carbamoylamino)oxy-4,5-dihydroxy-6-(hydroxymethyl)-5-[(2<I>R</I>,3<I>S</I>,4<I>S</I>,5<I>S</I>,6<I>R</I>)-3,4,5-trihydroxy-6-(hydroxymethyl)-4-[(2<I>R</I>,3<I>R</I>,4<I>S</I>,5<I>R</I>,6<I>R</I>)-3,4,5-trihydroxy-6-(hydroxymethyl)oxan-2-yl]oxan-2-yl]oxan-3-yl]acetamide

> <PUBCHEM_IUPAC_NAME>
N-[(2R,3S,4R,5S,6R)-2-(carbamoylamino)oxy-4,5-dihydroxy-6-(hydroxymethyl)-5-[(2R,3S,4S,5S,6R)-3,4,5-trihydroxy-6-(hydroxymethyl)-4-[(2R,3R,4S,5R,6R)-3,4,5-trihydroxy-6-(hydroxymethyl)oxan-2-yl]oxan-2-yl]oxan-3-yl]acetamide

> <PUBCHEM_IUPAC_SYSTEMATIC_NAME>
N-[(2R,3S,4R,5S,6R)-2-(aminocarbonylamino)oxy-6-(hydroxymethyl)-5-[(2R,3S,4S,5S,6R)-6-(hydroxymethyl)-4-[(2R,3R,4S,5R,6R)-6-(hydroxymethyl)-3,4,5-tris(oxidanyl)oxan-2-yl]-3,4,5-tris(oxidanyl)oxan-2-yl]-4,5-bis(oxidanyl)oxan-3-yl]ethanamide

> <PUBCHEM_IUPAC_TRADITIONAL_NAME>
N-[(2R,3S,4R,5S,6R)-4,5-dihydroxy-6-methylol-5-[(2R,3S,4S,5S,6R)-3,4,5-trihydroxy-6-methylol-4-[(2R,3R,4S,5R,6R)-3,4,5-trihydroxy-6-methylol-tetrahydropyran-2-yl]tetrahydropyran-2-yl]-2-ureidooxy-tetrahydropyran-3-yl]acetamide

> <PUBCHEM_IUPAC_INCHI>
InChI=1S/C21H37N3O17/c1-5(28)23-9-14(33)20(36,8(4-27)40-18(9)41-24-19(22)35)17-15(34)21(37,13(32)7(3-26)39-17)16-12(31)11(30)10(29)6(2-25)38-16/h6-18,25-27,29-34,36-37H,2-4H2,1H3,(H,23,28)(H3,22,24,35)/t6-,7-,8-,9+,10+,11+,12-,13+,14-,15+,16-,17-,18-,20-,21+/m1/s1

> <PUBCHEM_IUPAC_INCHIKEY>
ZMIBYCBJMMCGTC-MZEXUEDPSA-N

> <PUBCHEM_XLOGP3_AA>
-7.9

> <PUBCHEM_EXACT_MASS>
603.21229672

> <PUBCHEM_MOLECULAR_FORMULA>
C21H37N3O17

> <PUBCHEM_MOLECULAR_WEIGHT>
603.5

> <PUBCHEM_OPENEYE_CAN_SMILES>
CC(=O)NC1C(C(C(OC1ONC(=O)N)CO)(C2C(C(C(C(O2)CO)O)(C3C(C(C(C(O3)CO)O)O)O)O)O)O)O

> <PUBCHEM_OPENEYE_ISO_SMILES>
CC(=O)N[C@H]1[C@H]([C@]([C@H](O[C@@H]1ONC(=O)N)CO)([C@H]2[C@@H]([C@@]([C@H]([C@H](O2)CO)O)([C@H]3[C@@H]([C@H]([C@H]([C@H](O3)CO)O)O)O)O)O)O)O

> <PUBCHEM_CACTVS_TPSA>
344

> <PUBCHEM_MONOISOTOPIC_WEIGHT>
603.21229672

> <PUBCHEM_TOTAL_CHARGE>
0

> <PUBCHEM_HEAVY_ATOM_COUNT>
41

> <PUBCHEM_ATOM_DEF_STEREO_COUNT>
15

> <PUBCHEM_ATOM_UDEF_STEREO_COUNT>
0

> <PUBCHEM_BOND_DEF_STEREO_COUNT>
0

> <PUBCHEM_BOND_UDEF_STEREO_COUNT>
0

> <PUBCHEM_ISOTOPIC_ATOM_COUNT>
0

> <PUBCHEM_COMPONENT_COUNT>
1

> <PUBCHEM_CACTVS_TAUTO_COUNT>
-1

> <PUBCHEM_COORDINATE_TYPE>
1
5
255

> <PUBCHEM_BONDANNOTATIONS>
32  10  5
33  11  6
35  12  5
31  18  5
22  42  6
25  44  6
28  36  5
29  37  5
21  3  5
34  38  5
23  5  6
24  6  6
26  7  5
27  8  5
30  9  6

$$$$
