 
  -OEChem-10192104182D

 72 75  0     1  0  0  0  0  0999 V2000
    7.2269    0.8027    0.0000 O   0  0  0  0  0  0  0  0  0  0  0  0
    3.8545    0.5237    0.0000 O   0  0  0  0  0  0  0  0  0  0  0  0
    5.9178    3.4858    0.0000 O   0  0  0  0  0  0  0  0  0  0  0  0
    5.6387   -2.5496    0.0000 O   0  0  0  0  0  0  0  0  0  0  0  0
    4.4178    2.6198    0.0000 O   0  0  0  0  0  0  0  0  0  0  0  0
    2.5572   -1.4088    0.0000 O   0  0  0  0  0  0  0  0  0  0  0  0
    5.1141   -0.7289    0.0000 N   0  0  0  0  0  0  0  0  0  0  0  0
    6.8609   -2.1924    0.0000 N   0  0  0  0  0  0  0  0  0  0  0  0
    6.4178    0.2149    0.0000 C   0  0  1  0  0  0  0  0  0  0  0  0
    5.6088    0.8027    0.0000 C   0  0  1  0  0  0  0  0  0  0  0  0
    5.9178    1.7538    0.0000 C   0  0  1  0  0  0  0  0  0  0  0  0
    6.1082   -0.7297    0.0000 C   0  0  3  0  0  0  0  0  0  0  0  0
    6.9178    1.7538    0.0000 C   0  0  1  0  0  0  0  0  0  0  0  0
    4.8061    0.2163    0.0000 C   0  0  0  0  0  0  0  0  0  0  0  0
    7.3781    0.0462    0.0000 C   0  0  0  0  0  0  0  0  0  0  0  0
    6.1705   -1.7027    0.0000 C   0  0  0  0  0  0  0  0  0  0  0  0
    4.2851   -1.2881    0.0000 C   0  0  1  0  0  0  0  0  0  0  0  0
    7.9178    1.7538    0.0000 C   0  0  0  0  0  0  0  0  0  0  0  0
    5.4178    2.6198    0.0000 C   0  0  0  0  0  0  0  0  0  0  0  0
    7.4178    2.6198    0.0000 C   0  0  0  0  0  0  0  0  0  0  0  0
    7.9550   -0.8788    0.0000 C   0  0  0  0  0  0  0  0  0  0  0  0
    7.6894   -1.8498    0.0000 C   0  0  0  0  0  0  0  0  0  0  0  0
    6.8460   -3.1923    0.0000 C   0  0  3  0  0  0  0  0  0  0  0  0
    3.3863   -0.8496    0.0000 C   0  0  0  0  0  0  0  0  0  0  0  0
    4.3549   -2.2856    0.0000 C   0  0  0  0  0  0  0  0  0  0  0  0
    6.9178    3.4858    0.0000 C   0  0  0  0  0  0  0  0  0  0  0  0
    7.7045   -3.7051    0.0000 C   0  0  0  0  0  0  0  0  0  0  0  0
    7.4178    4.3518    0.0000 C   0  0  0  0  0  0  0  0  0  0  0  0
    5.9727   -3.6794    0.0000 C   0  0  0  0  0  0  0  0  0  0  0  0
    5.4178    4.3518    0.0000 C   0  0  0  0  0  0  0  0  0  0  0  0
    6.9178    5.2178    0.0000 C   0  0  0  0  0  0  0  0  0  0  0  0
    5.9178    5.2178    0.0000 C   0  0  0  0  0  0  0  0  0  0  0  0
    7.6897   -4.7050    0.0000 C   0  0  0  0  0  0  0  0  0  0  0  0
    8.5482   -5.2178    0.0000 C   0  0  0  0  0  0  0  0  0  0  0  0
    4.9205    1.3014    0.0000 H   0  0  0  0  0  0  0  0  0  0  0  0
    5.0725    1.6649    0.0000 H   0  0  0  0  0  0  0  0  0  0  0  0
    5.6838   -1.1817    0.0000 H   0  0  0  0  0  0  0  0  0  0  0  0
    7.7249    0.5602    0.0000 H   0  0  0  0  0  0  0  0  0  0  0  0
    4.8424   -1.5598    0.0000 H   0  0  0  0  0  0  0  0  0  0  0  0
    7.9178    1.1338    0.0000 H   0  0  0  0  0  0  0  0  0  0  0  0
    8.5378    1.7538    0.0000 H   0  0  0  0  0  0  0  0  0  0  0  0
    7.9178    2.3737    0.0000 H   0  0  0  0  0  0  0  0  0  0  0  0
    8.0378    2.6198    0.0000 H   0  0  0  0  0  0  0  0  0  0  0  0
    8.5684   -0.7890    0.0000 H   0  0  0  0  0  0  0  0  0  0  0  0
    7.7958   -2.4607    0.0000 H   0  0  0  0  0  0  0  0  0  0  0  0
    8.3087   -1.8792    0.0000 H   0  0  0  0  0  0  0  0  0  0  0  0
    6.3138   -2.8744    0.0000 H   0  0  0  0  0  0  0  0  0  0  0  0
    3.7507   -0.3481    0.0000 H   0  0  0  0  0  0  0  0  0  0  0  0
    2.9556   -0.4036    0.0000 H   0  0  0  0  0  0  0  0  0  0  0  0
    3.7364   -2.3289    0.0000 H   0  0  0  0  0  0  0  0  0  0  0  0
    4.3982   -2.9041    0.0000 H   0  0  0  0  0  0  0  0  0  0  0  0
    4.9734   -2.2424    0.0000 H   0  0  0  0  0  0  0  0  0  0  0  0
    6.4430    3.8844    0.0000 H   0  0  0  0  0  0  0  0  0  0  0  0
    8.3134   -3.8219    0.0000 H   0  0  0  0  0  0  0  0  0  0  0  0
    7.9252   -3.1258    0.0000 H   0  0  0  0  0  0  0  0  0  0  0  0
    7.8928    3.9533    0.0000 H   0  0  0  0  0  0  0  0  0  0  0  0
    7.8928    4.7504    0.0000 H   0  0  0  0  0  0  0  0  0  0  0  0
    5.6707   -3.1379    0.0000 H   0  0  0  0  0  0  0  0  0  0  0  0
    5.4312   -3.9814    0.0000 H   0  0  0  0  0  0  0  0  0  0  0  0
    6.2747   -4.2209    0.0000 H   0  0  0  0  0  0  0  0  0  0  0  0
    4.9429    4.7504    0.0000 H   0  0  0  0  0  0  0  0  0  0  0  0
    4.9429    3.9533    0.0000 H   0  0  0  0  0  0  0  0  0  0  0  0
    7.5005    5.4299    0.0000 H   0  0  0  0  0  0  0  0  0  0  0  0
    6.8102    5.8284    0.0000 H   0  0  0  0  0  0  0  0  0  0  0  0
    6.0255    5.8284    0.0000 H   0  0  0  0  0  0  0  0  0  0  0  0
    5.3352    5.4299    0.0000 H   0  0  0  0  0  0  0  0  0  0  0  0
    2.0000   -1.1370    0.0000 H   0  0  0  0  0  0  0  0  0  0  0  0
    7.0808   -4.5883    0.0000 H   0  0  0  0  0  0  0  0  0  0  0  0
    7.4690   -5.2844    0.0000 H   0  0  0  0  0  0  0  0  0  0  0  0
    8.2302   -5.7501    0.0000 H   0  0  0  0  0  0  0  0  0  0  0  0
    9.0804   -5.5358    0.0000 H   0  0  0  0  0  0  0  0  0  0  0  0
    8.8661   -4.6856    0.0000 H   0  0  0  0  0  0  0  0  0  0  0  0
  9  1  1  6  0  0  0
  1 13  1  0  0  0  0
  2 14  2  0  0  0  0
  3 19  1  0  0  0  0
  3 30  1  0  0  0  0
  4 16  2  0  0  0  0
  5 19  2  0  0  0  0
  6 24  1  0  0  0  0
  6 67  1  0  0  0  0
  7 12  1  0  0  0  0
  7 14  1  0  0  0  0
  7 17  1  0  0  0  0
  8 16  1  0  0  0  0
  8 22  1  0  0  0  0
  8 23  1  0  0  0  0
  9 10  1  0  0  0  0
  9 12  1  0  0  0  0
  9 15  1  0  0  0  0
 10 11  1  0  0  0  0
 10 14  1  0  0  0  0
 10 35  1  1  0  0  0
 11 13  1  0  0  0  0
 11 19  1  0  0  0  0
 11 36  1  1  0  0  0
 12 16  1  0  0  0  0
 12 37  1  0  0  0  0
 13 18  1  1  0  0  0
 13 20  1  0  0  0  0
 15 21  2  0  0  0  0
 15 38  1  0  0  0  0
 17 24  1  0  0  0  0
 17 25  1  6  0  0  0
 17 39  1  0  0  0  0
 18 40  1  0  0  0  0
 18 41  1  0  0  0  0
 18 42  1  0  0  0  0
 20 26  2  0  0  0  0
 20 43  1  0  0  0  0
 21 22  1  0  0  0  0
 21 44  1  0  0  0  0
 22 45  1  0  0  0  0
 22 46  1  0  0  0  0
 23 27  1  0  0  0  0
 23 29  1  0  0  0  0
 23 47  1  0  0  0  0
 24 48  1  0  0  0  0
 24 49  1  0  0  0  0
 25 50  1  0  0  0  0
 25 51  1  0  0  0  0
 25 52  1  0  0  0  0
 26 28  1  0  0  0  0
 26 53  1  0  0  0  0
 27 33  1  0  0  0  0
 27 54  1  0  0  0  0
 27 55  1  0  0  0  0
 28 31  1  0  0  0  0
 28 56  1  0  0  0  0
 28 57  1  0  0  0  0
 29 58  1  0  0  0  0
 29 59  1  0  0  0  0
 29 60  1  0  0  0  0
 30 32  1  0  0  0  0
 30 61  1  0  0  0  0
 30 62  1  0  0  0  0
 31 32  1  0  0  0  0
 31 63  1  0  0  0  0
 31 64  1  0  0  0  0
 32 65  1  0  0  0  0
 32 66  1  0  0  0  0
 33 34  1  0  0  0  0
 33 68  1  0  0  0  0
 33 69  1  0  0  0  0
 34 70  1  0  0  0  0
 34 71  1  0  0  0  0
 34 72  1  0  0  0  0
M  END
> <PUBCHEM_COMPOUND_CID>
24005230

> <PUBCHEM_COMPOUND_CANONICALIZED>
1

> <PUBCHEM_CACTVS_COMPLEXITY>
887

> <PUBCHEM_CACTVS_HBOND_ACCEPTOR>
6

> <PUBCHEM_CACTVS_HBOND_DONOR>
1

> <PUBCHEM_CACTVS_ROTATABLE_BOND>
5

> <PUBCHEM_CACTVS_SUBSKEYS>
AAADcfB7OAAAAAAAAAAAAAAAAAAAAWJAAAAAAAAABAAWAACAAAAAHgAACAAADWzhgAYCCAMABgCIACHSGACAAAAgAAAICAGIAAgCVBYAoSAXUAAHpgCYIAP/20OegAAAAAAAAAAAAAAAAAAAAAAAAAAAAA==

> <PUBCHEM_IUPAC_OPENEYE_NAME>
(1S,3S,4Z,12S,13R)-15-[(1R)-2-hydroxy-1-methyl-ethyl]-3-methyl-18-(1-methylbutyl)-2,10-dioxa-15,18-diazatetracyclo[11.8.0.01,16.03,12]henicosa-4,20-diene-11,14,17-trione

> <PUBCHEM_IUPAC_CAS_NAME>
(1S,3S,4Z,12S,13R)-15-[(2R)-1-hydroxypropan-2-yl]-3-methyl-18-pentan-2-yl-2,10-dioxa-15,18-diazatetracyclo[11.8.0.01,16.03,12]heneicosa-4,20-diene-11,14,17-trione

> <PUBCHEM_IUPAC_NAME_MARKUP>
(1<I>S</I>,3<I>S</I>,4<I>Z</I>,12<I>S</I>,13<I>R</I>)-15-[(2<I>R</I>)-1-hydroxypropan-2-yl]-3-methyl-18-pentan-2-yl-2,10-dioxa-15,18-diazatetracyclo[11.8.0.0<SUP>1,16</SUP>.0<SUP>3,12</SUP>]henicosa-4,20-diene-11,14,17-trione

> <PUBCHEM_IUPAC_NAME>
(1S,3S,4Z,12S,13R)-15-[(2R)-1-hydroxypropan-2-yl]-3-methyl-18-pentan-2-yl-2,10-dioxa-15,18-diazatetracyclo[11.8.0.01,16.03,12]henicosa-4,20-diene-11,14,17-trione

> <PUBCHEM_IUPAC_SYSTEMATIC_NAME>
(1S,3S,4Z,12S,13R)-3-methyl-15-[(2R)-1-oxidanylpropan-2-yl]-18-pentan-2-yl-2,10-dioxa-15,18-diazatetracyclo[11.8.0.01,16.03,12]henicosa-4,20-diene-11,14,17-trione

> <PUBCHEM_IUPAC_TRADITIONAL_NAME>
(1S,3S,4Z,12S,13R)-15-[(1R)-2-hydroxy-1-methyl-ethyl]-3-methyl-18-(1-methylbutyl)-2,10-dioxa-15,18-diazatetracyclo[11.8.0.01,16.03,12]heneicosa-4,20-diene-11,14,17-trione

> <PUBCHEM_IUPAC_INCHI>
InChI=1S/C26H38N2O6/c1-5-11-17(2)27-14-10-13-26-19(22(30)28(18(3)16-29)21(26)23(27)31)20-24(32)33-15-9-7-6-8-12-25(20,4)34-26/h8,10,12-13,17-21,29H,5-7,9,11,14-16H2,1-4H3/b12-8-/t17?,18-,19+,20-,21?,25+,26+/m1/s1

> <PUBCHEM_IUPAC_INCHIKEY>
UGDAMFBKVAQAJI-MLDHEVFMSA-N

> <PUBCHEM_XLOGP3_AA>
1.7

> <PUBCHEM_EXACT_MASS>
474.27298694

> <PUBCHEM_MOLECULAR_FORMULA>
C26H38N2O6

> <PUBCHEM_MOLECULAR_WEIGHT>
474.6

> <PUBCHEM_OPENEYE_CAN_SMILES>
CCCC(C)N1CC=CC23C(C4C(=O)OCCCCC=CC4(O2)C)C(=O)N(C3C1=O)C(C)CO

> <PUBCHEM_OPENEYE_ISO_SMILES>
CCCC(C)N1CC=C[C@@]23[C@@H]([C@@H]4C(=O)OCCCC/C=C\[C@@]4(O2)C)C(=O)N(C3C1=O)[C@H](C)CO

> <PUBCHEM_CACTVS_TPSA>
96.4

> <PUBCHEM_MONOISOTOPIC_WEIGHT>
474.27298694

> <PUBCHEM_TOTAL_CHARGE>
0

> <PUBCHEM_HEAVY_ATOM_COUNT>
34

> <PUBCHEM_ATOM_DEF_STEREO_COUNT>
5

> <PUBCHEM_ATOM_UDEF_STEREO_COUNT>
2

> <PUBCHEM_BOND_DEF_STEREO_COUNT>
1

> <PUBCHEM_BOND_UDEF_STEREO_COUNT>
0

> <PUBCHEM_ISOTOPIC_ATOM_COUNT>
0

> <PUBCHEM_COMPONENT_COUNT>
1

> <PUBCHEM_CACTVS_TAUTO_COUNT>
-1

> <PUBCHEM_COORDINATE_TYPE>
1
5
255

> <PUBCHEM_BONDANNOTATIONS>
9  1  6
10  35  5
11  36  5
12  16  3
13  18  5
17  25  6
23  29  3

$$$$
