 
  -OEChem-10192104322D

 75 78  0     1  0  0  0  0  0999 V2000
    9.3158    1.7807    0.0000 O   0  0  0  0  0  0  0  0  0  0  0  0
    6.1434    2.7989    0.0000 O   0  0  0  0  0  0  0  0  0  0  0  0
    5.1350   -3.0557    0.0000 O   0  0  0  0  0  0  0  0  0  0  0  0
    6.8671   -3.0557    0.0000 O   0  0  0  0  0  0  0  0  0  0  0  0
    5.1350   -6.0557    0.0000 O   0  0  0  0  0  0  0  0  0  0  0  0
    3.4030   -5.0557    0.0000 O   0  0  0  0  0  0  0  0  0  0  0  0
    6.8671   -5.0557    0.0000 O   0  0  0  0  0  0  0  0  0  0  0  0
    8.5991   -2.0557    0.0000 O   0  0  0  0  0  0  0  0  0  0  0  0
   11.6183    4.6829    0.0000 O   0  0  0  0  0  0  0  0  0  0  0  0
    8.4537    6.0918    0.0000 O   0  0  0  0  0  0  0  0  0  0  0  0
    2.5369   -3.5557    0.0000 O   0  0  0  0  0  0  0  0  0  0  0  0
   10.4427    6.3009    0.0000 O   0  0  0  0  0  0  0  0  0  0  0  0
    7.8376    2.4388    0.0000 C   0  0  2  0  0  0  0  0  0  0  0  0
    7.7331    1.4443    0.0000 C   0  0  1  0  0  0  0  0  0  0  0  0
    8.8158    2.6467    0.0000 C   0  0  2  0  0  0  0  0  0  0  0  0
    8.6466    1.0376    0.0000 C   0  0  0  0  0  0  0  0  0  0  0  0
    6.8671    0.9443    0.0000 C   0  0  0  0  0  0  0  0  0  0  0  0
    7.0945    3.1079    0.0000 C   0  0  0  0  0  0  0  0  0  0  0  0
    9.2225    3.5603    0.0000 C   0  0  0  0  0  0  0  0  0  0  0  0
    6.8671   -0.0557    0.0000 C   0  0  0  0  0  0  0  0  0  0  0  0
    5.1350   -5.0557    0.0000 C   0  0  1  0  0  0  0  0  0  0  0  0
    4.2690   -4.5557    0.0000 C   0  0  1  0  0  0  0  0  0  0  0  0
    6.0010   -4.5557    0.0000 C   0  0  2  0  0  0  0  0  0  0  0  0
    4.2690   -3.5557    0.0000 C   0  0  1  0  0  0  0  0  0  0  0  0
    6.0010   -3.5557    0.0000 C   0  0  1  0  0  0  0  0  0  0  0  0
    8.6347    4.3693    0.0000 C   0  0  0  0  0  0  0  0  0  0  0  0
   10.2170    3.6648    0.0000 C   0  0  0  0  0  0  0  0  0  0  0  0
    7.7331   -0.5557    0.0000 C   0  0  0  0  0  0  0  0  0  0  0  0
    6.0010   -0.5557    0.0000 C   0  0  0  0  0  0  0  0  0  0  0  0
    6.8671   -2.0557    0.0000 C   0  0  0  0  0  0  0  0  0  0  0  0
    7.7331   -1.5557    0.0000 C   0  0  0  0  0  0  0  0  0  0  0  0
    3.4030   -3.0557    0.0000 C   0  0  0  0  0  0  0  0  0  0  0  0
    6.0010   -1.5557    0.0000 C   0  0  0  0  0  0  0  0  0  0  0  0
   10.6238    4.5783    0.0000 C   0  0  0  0  0  0  0  0  0  0  0  0
    9.0414    5.2828    0.0000 C   0  0  0  0  0  0  0  0  0  0  0  0
   10.0360    5.3874    0.0000 C   0  0  0  0  0  0  0  0  0  0  0  0
    9.4651   -1.5557    0.0000 C   0  0  0  0  0  0  0  0  0  0  0  0
   12.2061    3.8738    0.0000 C   0  0  0  0  0  0  0  0  0  0  0  0
    7.4592    5.9873    0.0000 C   0  0  0  0  0  0  0  0  0  0  0  0
    7.2588    2.2166    0.0000 H   0  0  0  0  0  0  0  0  0  0  0  0
    7.2131    1.7820    0.0000 H   0  0  0  0  0  0  0  0  0  0  0  0
    9.4349    2.6792    0.0000 H   0  0  0  0  0  0  0  0  0  0  0  0
    8.3366    0.5006    0.0000 H   0  0  0  0  0  0  0  0  0  0  0  0
    9.1482    0.6731    0.0000 H   0  0  0  0  0  0  0  0  0  0  0  0
    6.6550    1.5269    0.0000 H   0  0  0  0  0  0  0  0  0  0  0  0
    6.2565    0.8366    0.0000 H   0  0  0  0  0  0  0  0  0  0  0  0
    7.5830    3.4896    0.0000 H   0  0  0  0  0  0  0  0  0  0  0  0
    6.8034    3.6554    0.0000 H   0  0  0  0  0  0  0  0  0  0  0  0
    4.5981   -5.3657    0.0000 H   0  0  0  0  0  0  0  0  0  0  0  0
    4.2690   -5.1757    0.0000 H   0  0  0  0  0  0  0  0  0  0  0  0
    6.0010   -5.1757    0.0000 H   0  0  0  0  0  0  0  0  0  0  0  0
    4.2690   -2.9357    0.0000 H   0  0  0  0  0  0  0  0  0  0  0  0
    6.0010   -2.9357    0.0000 H   0  0  0  0  0  0  0  0  0  0  0  0
    8.0181    4.3045    0.0000 H   0  0  0  0  0  0  0  0  0  0  0  0
   10.5814    3.1632    0.0000 H   0  0  0  0  0  0  0  0  0  0  0  0
    8.2700   -0.2457    0.0000 H   0  0  0  0  0  0  0  0  0  0  0  0
    5.4641   -0.2457    0.0000 H   0  0  0  0  0  0  0  0  0  0  0  0
    5.6827    3.2138    0.0000 H   0  0  0  0  0  0  0  0  0  0  0  0
    3.8015   -2.5808    0.0000 H   0  0  0  0  0  0  0  0  0  0  0  0
    3.0044   -2.5808    0.0000 H   0  0  0  0  0  0  0  0  0  0  0  0
    5.4641   -1.8657    0.0000 H   0  0  0  0  0  0  0  0  0  0  0  0
    5.6720   -6.3657    0.0000 H   0  0  0  0  0  0  0  0  0  0  0  0
    3.4030   -5.6757    0.0000 H   0  0  0  0  0  0  0  0  0  0  0  0
    7.4040   -4.7457    0.0000 H   0  0  0  0  0  0  0  0  0  0  0  0
    2.0000   -3.2457    0.0000 H   0  0  0  0  0  0  0  0  0  0  0  0
   11.0593    6.3657    0.0000 H   0  0  0  0  0  0  0  0  0  0  0  0
    9.7751   -2.0926    0.0000 H   0  0  0  0  0  0  0  0  0  0  0  0
   10.0021   -1.2457    0.0000 H   0  0  0  0  0  0  0  0  0  0  0  0
    9.1551   -1.0188    0.0000 H   0  0  0  0  0  0  0  0  0  0  0  0
   11.7045    3.5094    0.0000 H   0  0  0  0  0  0  0  0  0  0  0  0
   12.5705    3.3723    0.0000 H   0  0  0  0  0  0  0  0  0  0  0  0
   12.7077    4.2383    0.0000 H   0  0  0  0  0  0  0  0  0  0  0  0
    7.3943    6.6039    0.0000 H   0  0  0  0  0  0  0  0  0  0  0  0
    6.8425    5.9225    0.0000 H   0  0  0  0  0  0  0  0  0  0  0  0
    7.5240    5.3707    0.0000 H   0  0  0  0  0  0  0  0  0  0  0  0
  1 15  1  0  0  0  0
  1 16  1  0  0  0  0
  2 18  1  0  0  0  0
  2 58  1  0  0  0  0
  3 24  1  0  0  0  0
  3 25  1  0  0  0  0
 25  4  1  1  0  0  0
  4 30  1  0  0  0  0
 21  5  1  1  0  0  0
  5 62  1  0  0  0  0
 22  6  1  6  0  0  0
  6 63  1  0  0  0  0
 23  7  1  6  0  0  0
  7 64  1  0  0  0  0
  8 31  1  0  0  0  0
  8 37  1  0  0  0  0
  9 34  1  0  0  0  0
  9 38  1  0  0  0  0
 10 35  1  0  0  0  0
 10 39  1  0  0  0  0
 11 32  1  0  0  0  0
 11 65  1  0  0  0  0
 12 36  1  0  0  0  0
 12 66  1  0  0  0  0
 13 14  1  0  0  0  0
 13 15  1  0  0  0  0
 13 18  1  1  0  0  0
 13 40  1  0  0  0  0
 14 16  1  0  0  0  0
 14 17  1  1  0  0  0
 14 41  1  0  0  0  0
 15 19  1  6  0  0  0
 15 42  1  0  0  0  0
 16 43  1  0  0  0  0
 16 44  1  0  0  0  0
 17 20  1  0  0  0  0
 17 45  1  0  0  0  0
 17 46  1  0  0  0  0
 18 47  1  0  0  0  0
 18 48  1  0  0  0  0
 19 26  2  0  0  0  0
 19 27  1  0  0  0  0
 20 28  2  0  0  0  0
 20 29  1  0  0  0  0
 21 22  1  0  0  0  0
 21 23  1  0  0  0  0
 21 49  1  0  0  0  0
 22 24  1  0  0  0  0
 22 50  1  0  0  0  0
 23 25  1  0  0  0  0
 23 51  1  0  0  0  0
 24 32  1  1  0  0  0
 24 52  1  0  0  0  0
 25 53  1  0  0  0  0
 26 35  1  0  0  0  0
 26 54  1  0  0  0  0
 27 34  2  0  0  0  0
 27 55  1  0  0  0  0
 28 31  1  0  0  0  0
 28 56  1  0  0  0  0
 29 33  2  0  0  0  0
 29 57  1  0  0  0  0
 30 31  2  0  0  0  0
 30 33  1  0  0  0  0
 32 59  1  0  0  0  0
 32 60  1  0  0  0  0
 33 61  1  0  0  0  0
 34 36  1  0  0  0  0
 35 36  2  0  0  0  0
 37 67  1  0  0  0  0
 37 68  1  0  0  0  0
 37 69  1  0  0  0  0
 38 70  1  0  0  0  0
 38 71  1  0  0  0  0
 38 72  1  0  0  0  0
 39 73  1  0  0  0  0
 39 74  1  0  0  0  0
 39 75  1  0  0  0  0
M  END
> <PUBCHEM_COMPOUND_CID>
57390294

> <PUBCHEM_COMPOUND_CANONICALIZED>
1

> <PUBCHEM_CACTVS_COMPLEXITY>
730

> <PUBCHEM_CACTVS_HBOND_ACCEPTOR>
12

> <PUBCHEM_CACTVS_HBOND_DONOR>
6

> <PUBCHEM_CACTVS_ROTATABLE_BOND>
10

> <PUBCHEM_CACTVS_SUBSKEYS>
AAADcfB4PAAAAAAAAAAAAAAAAAAAASAAAAA0YIAAAAAAAAABQAAAGgAACAAADRSwmAMyDoAABgCAAiBCAAACCAAgIAAIiAAGiIgdNyKGMRqieCOlwBUPuAfA4PwOoAABCAAAQABAAAIQAACAAAAAAAAAAA==

> <PUBCHEM_IUPAC_OPENEYE_NAME>
(2S,3R,4S,5S,6R)-2-[4-[[(3S,4S,5R)-5-(4-hydroxy-3,5-dimethoxy-phenyl)-4-(hydroxymethyl)tetrahydrofuran-3-yl]methyl]-2-methoxy-phenoxy]-6-(hydroxymethyl)tetrahydropyran-3,4,5-triol

> <PUBCHEM_IUPAC_CAS_NAME>
(2S,3R,4S,5S,6R)-2-[4-[[(3S,4S,5R)-5-(4-hydroxy-3,5-dimethoxyphenyl)-4-(hydroxymethyl)-3-oxolanyl]methyl]-2-methoxyphenoxy]-6-(hydroxymethyl)oxane-3,4,5-triol

> <PUBCHEM_IUPAC_NAME_MARKUP>
(2<I>S</I>,3<I>R</I>,4<I>S</I>,5<I>S</I>,6<I>R</I>)-2-[4-[[(3<I>S</I>,4<I>S</I>,5<I>R</I>)-5-(4-hydroxy-3,5-dimethoxyphenyl)-4-(hydroxymethyl)oxolan-3-yl]methyl]-2-methoxyphenoxy]-6-(hydroxymethyl)oxane-3,4,5-triol

> <PUBCHEM_IUPAC_NAME>
(2S,3R,4S,5S,6R)-2-[4-[[(3S,4S,5R)-5-(4-hydroxy-3,5-dimethoxyphenyl)-4-(hydroxymethyl)oxolan-3-yl]methyl]-2-methoxyphenoxy]-6-(hydroxymethyl)oxane-3,4,5-triol

> <PUBCHEM_IUPAC_SYSTEMATIC_NAME>
(2S,3R,4S,5S,6R)-2-[4-[[(3S,4S,5R)-5-(3,5-dimethoxy-4-oxidanyl-phenyl)-4-(hydroxymethyl)oxolan-3-yl]methyl]-2-methoxy-phenoxy]-6-(hydroxymethyl)oxane-3,4,5-triol

> <PUBCHEM_IUPAC_TRADITIONAL_NAME>
(2S,3R,4S,5S,6R)-2-[4-[[(3S,4S,5R)-5-(4-hydroxy-3,5-dimethoxy-phenyl)-4-methylol-tetrahydrofuran-3-yl]methyl]-2-methoxy-phenoxy]-6-methylol-tetrahydropyran-3,4,5-triol

> <PUBCHEM_IUPAC_INCHI>
InChI=1S/C27H36O12/c1-34-18-7-13(4-5-17(18)38-27-25(33)24(32)23(31)21(11-29)39-27)6-15-12-37-26(16(15)10-28)14-8-19(35-2)22(30)20(9-14)36-3/h4-5,7-9,15-16,21,23-33H,6,10-12H2,1-3H3/t15-,16-,21-,23-,24+,25-,26+,27-/m1/s1

> <PUBCHEM_IUPAC_INCHIKEY>
SXFAXLRMEJZJPU-UQGLNZQASA-N

> <PUBCHEM_XLOGP3_AA>
0.6

> <PUBCHEM_EXACT_MASS>
552.22067658

> <PUBCHEM_MOLECULAR_FORMULA>
C27H36O12

> <PUBCHEM_MOLECULAR_WEIGHT>
552.6

> <PUBCHEM_OPENEYE_CAN_SMILES>
COC1=CC(=CC(=C1O)OC)C2C(C(CO2)CC3=CC(=C(C=C3)OC4C(C(C(C(O4)CO)O)O)O)OC)CO

> <PUBCHEM_OPENEYE_ISO_SMILES>
COC1=CC(=CC(=C1O)OC)[C@H]2[C@@H]([C@@H](CO2)CC3=CC(=C(C=C3)O[C@H]4[C@@H]([C@H]([C@@H]([C@H](O4)CO)O)O)O)OC)CO

> <PUBCHEM_CACTVS_TPSA>
177

> <PUBCHEM_MONOISOTOPIC_WEIGHT>
552.22067658

> <PUBCHEM_TOTAL_CHARGE>
0

> <PUBCHEM_HEAVY_ATOM_COUNT>
39

> <PUBCHEM_ATOM_DEF_STEREO_COUNT>
8

> <PUBCHEM_ATOM_UDEF_STEREO_COUNT>
0

> <PUBCHEM_BOND_DEF_STEREO_COUNT>
0

> <PUBCHEM_BOND_UDEF_STEREO_COUNT>
0

> <PUBCHEM_ISOTOPIC_ATOM_COUNT>
0

> <PUBCHEM_COMPONENT_COUNT>
1

> <PUBCHEM_CACTVS_TAUTO_COUNT>
-1

> <PUBCHEM_COORDINATE_TYPE>
1
5
255

> <PUBCHEM_BONDANNOTATIONS>
13  18  5
14  17  5
15  19  6
19  26  8
19  27  8
20  28  8
20  29  8
24  32  5
26  35  8
27  34  8
28  31  8
29  33  8
30  31  8
30  33  8
34  36  8
35  36  8
25  4  5
21  5  5
22  6  6
23  7  6

$$$$
