 
  -OEChem-10192103502D

 29 29  0     0  0  0  0  0  0999 V2000
    4.2690   -2.4050    0.0000 O   0  0  0  0  0  0  0  0  0  0  0  0
    2.5369    0.5950    0.0000 O   0  0  0  0  0  0  0  0  0  0  0  0
    5.1350    2.0950    0.0000 O   0  0  0  0  0  0  0  0  0  0  0  0
    3.4030    2.0950    0.0000 O   0  0  0  0  0  0  0  0  0  0  0  0
    6.0010   -1.4050    0.0000 C   0  0  0  0  0  0  0  0  0  0  0  0
    6.8671   -0.9050    0.0000 C   0  0  0  0  0  0  0  0  0  0  0  0
    5.1350   -0.9050    0.0000 C   0  0  0  0  0  0  0  0  0  0  0  0
    7.7331   -1.4050    0.0000 C   0  0  0  0  0  0  0  0  0  0  0  0
    5.1350    0.0950    0.0000 C   0  0  0  0  0  0  0  0  0  0  0  0
    4.2690   -1.4050    0.0000 C   0  0  0  0  0  0  0  0  0  0  0  0
    4.2690    0.5950    0.0000 C   0  0  0  0  0  0  0  0  0  0  0  0
    8.5991   -0.9050    0.0000 C   0  0  0  0  0  0  0  0  0  0  0  0
    3.4030   -0.9050    0.0000 C   0  0  0  0  0  0  0  0  0  0  0  0
    3.4030    0.0950    0.0000 C   0  0  0  0  0  0  0  0  0  0  0  0
    4.2690    1.5950    0.0000 C   0  0  0  0  0  0  0  0  0  0  0  0
    5.6025   -1.8800    0.0000 H   0  0  0  0  0  0  0  0  0  0  0  0
    6.3996   -1.8800    0.0000 H   0  0  0  0  0  0  0  0  0  0  0  0
    7.2656   -0.4301    0.0000 H   0  0  0  0  0  0  0  0  0  0  0  0
    6.4685   -0.4301    0.0000 H   0  0  0  0  0  0  0  0  0  0  0  0
    7.3346   -1.8800    0.0000 H   0  0  0  0  0  0  0  0  0  0  0  0
    8.1316   -1.8800    0.0000 H   0  0  0  0  0  0  0  0  0  0  0  0
    5.6720    0.4050    0.0000 H   0  0  0  0  0  0  0  0  0  0  0  0
    8.9091   -1.4419    0.0000 H   0  0  0  0  0  0  0  0  0  0  0  0
    9.1360   -0.5950    0.0000 H   0  0  0  0  0  0  0  0  0  0  0  0
    8.2891   -0.3681    0.0000 H   0  0  0  0  0  0  0  0  0  0  0  0
    2.8660   -1.2150    0.0000 H   0  0  0  0  0  0  0  0  0  0  0  0
    3.7320   -2.7150    0.0000 H   0  0  0  0  0  0  0  0  0  0  0  0
    2.0000    0.2850    0.0000 H   0  0  0  0  0  0  0  0  0  0  0  0
    5.1350    2.7150    0.0000 H   0  0  0  0  0  0  0  0  0  0  0  0
  1 10  1  0  0  0  0
  1 27  1  0  0  0  0
  2 14  1  0  0  0  0
  2 28  1  0  0  0  0
  3 15  1  0  0  0  0
  3 29  1  0  0  0  0
  4 15  2  0  0  0  0
  5  6  1  0  0  0  0
  5  7  1  0  0  0  0
  5 16  1  0  0  0  0
  5 17  1  0  0  0  0
  6  8  1  0  0  0  0
  6 18  1  0  0  0  0
  6 19  1  0  0  0  0
  7  9  2  0  0  0  0
  7 10  1  0  0  0  0
  8 12  1  0  0  0  0
  8 20  1  0  0  0  0
  8 21  1  0  0  0  0
  9 11  1  0  0  0  0
  9 22  1  0  0  0  0
 10 13  2  0  0  0  0
 11 14  2  0  0  0  0
 11 15  1  0  0  0  0
 12 23  1  0  0  0  0
 12 24  1  0  0  0  0
 12 25  1  0  0  0  0
 13 14  1  0  0  0  0
 13 26  1  0  0  0  0
M  END
> <PUBCHEM_COMPOUND_CID>
126728589

> <PUBCHEM_COMPOUND_CANONICALIZED>
1

> <PUBCHEM_CACTVS_COMPLEXITY>
217

> <PUBCHEM_CACTVS_HBOND_ACCEPTOR>
4

> <PUBCHEM_CACTVS_HBOND_DONOR>
3

> <PUBCHEM_CACTVS_ROTATABLE_BOND>
4

> <PUBCHEM_CACTVS_SUBSKEYS>
AAADccBwOAAAAAAAAAAAAAAAAAAAAAAAAAAwAAAAAAAAAAABAAAAGgAACAAADASAmAAyDoAAAgCIAiDSCAACAAAkIAAAiAEGCMgIJzaCFRKAcUAl4BUImYeI7OTOIAACCAAIAABAAAQQABAAAAAAAAAAAA==

> <PUBCHEM_IUPAC_OPENEYE_NAME>
5-butyl-2,4-dihydroxy-benzoic acid

> <PUBCHEM_IUPAC_CAS_NAME>
5-butyl-2,4-dihydroxybenzoic acid

> <PUBCHEM_IUPAC_NAME_MARKUP>
5-butyl-2,4-dihydroxybenzoic acid

> <PUBCHEM_IUPAC_NAME>
5-butyl-2,4-dihydroxybenzoic acid

> <PUBCHEM_IUPAC_SYSTEMATIC_NAME>
5-butyl-2,4-bis(oxidanyl)benzoic acid

> <PUBCHEM_IUPAC_TRADITIONAL_NAME>
5-butyl-2,4-dihydroxy-benzoic acid

> <PUBCHEM_IUPAC_INCHI>
InChI=1S/C11H14O4/c1-2-3-4-7-5-8(11(14)15)10(13)6-9(7)12/h5-6,12-13H,2-4H2,1H3,(H,14,15)

> <PUBCHEM_IUPAC_INCHIKEY>
RPRRJIIPWBCWNL-UHFFFAOYSA-N

> <PUBCHEM_XLOGP3_AA>
3.2

> <PUBCHEM_EXACT_MASS>
210.08920892

> <PUBCHEM_MOLECULAR_FORMULA>
C11H14O4

> <PUBCHEM_MOLECULAR_WEIGHT>
210.23

> <PUBCHEM_OPENEYE_CAN_SMILES>
CCCCC1=CC(=C(C=C1O)O)C(=O)O

> <PUBCHEM_OPENEYE_ISO_SMILES>
CCCCC1=CC(=C(C=C1O)O)C(=O)O

> <PUBCHEM_CACTVS_TPSA>
77.8

> <PUBCHEM_MONOISOTOPIC_WEIGHT>
210.08920892

> <PUBCHEM_TOTAL_CHARGE>
0

> <PUBCHEM_HEAVY_ATOM_COUNT>
15

> <PUBCHEM_ATOM_DEF_STEREO_COUNT>
0

> <PUBCHEM_ATOM_UDEF_STEREO_COUNT>
0

> <PUBCHEM_BOND_DEF_STEREO_COUNT>
0

> <PUBCHEM_BOND_UDEF_STEREO_COUNT>
0

> <PUBCHEM_ISOTOPIC_ATOM_COUNT>
0

> <PUBCHEM_COMPONENT_COUNT>
1

> <PUBCHEM_CACTVS_TAUTO_COUNT>
-1

> <PUBCHEM_COORDINATE_TYPE>
1
5
255

> <PUBCHEM_BONDANNOTATIONS>
10  13  8
11  14  8
13  14  8
7  10  8
7  9  8
9  11  8

$$$$
