 
  -OEChem-10192104082D

 64 67  0     1  0  0  0  0  0999 V2000
    5.1350    0.3450    0.0000 O   0  0  0  0  0  0  0  0  0  0  0  0
    6.8671   -1.6550    0.0000 O   0  0  0  0  0  0  0  0  0  0  0  0
    6.8671    0.3450    0.0000 O   0  0  0  0  0  0  0  0  0  0  0  0
    5.1350   -2.6550    0.0000 O   0  0  0  0  0  0  0  0  0  0  0  0
    3.4030   -1.6550    0.0000 O   0  0  0  0  0  0  0  0  0  0  0  0
    2.5369   -0.1550    0.0000 O   0  0  0  0  0  0  0  0  0  0  0  0
    6.0010   -3.1550    0.0000 O   0  0  0  0  0  0  0  0  0  0  0  0
    9.4651    1.8450    0.0000 O   0  0  0  0  0  0  0  0  0  0  0  0
    6.8671    4.3450    0.0000 O   0  0  0  0  0  0  0  0  0  0  0  0
   10.3312    0.3450    0.0000 O   0  0  0  0  0  0  0  0  0  0  0  0
   12.0632    0.3450    0.0000 O   0  0  0  0  0  0  0  0  0  0  0  0
    5.1350   -1.6550    0.0000 C   0  0  1  0  0  0  0  0  0  0  0  0
    4.2690   -1.1550    0.0000 C   0  0  1  0  0  0  0  0  0  0  0  0
    6.0010   -1.1550    0.0000 C   0  0  2  0  0  0  0  0  0  0  0  0
    4.2690   -0.1550    0.0000 C   0  0  1  0  0  0  0  0  0  0  0  0
    6.0010   -0.1550    0.0000 C   0  0  1  0  0  0  0  0  0  0  0  0
    3.4030    0.3450    0.0000 C   0  0  0  0  0  0  0  0  0  0  0  0
    6.8671    1.3450    0.0000 C   0  0  0  0  0  0  0  0  0  0  0  0
    6.8671   -2.6550    0.0000 C   0  0  0  0  0  0  0  0  0  0  0  0
    7.7331    1.8450    0.0000 C   0  0  0  0  0  0  0  0  0  0  0  0
    6.0010    1.8450    0.0000 C   0  0  0  0  0  0  0  0  0  0  0  0
    7.7331   -3.1550    0.0000 C   0  0  0  0  0  0  0  0  0  0  0  0
    8.5991    1.3450    0.0000 C   0  0  0  0  0  0  0  0  0  0  0  0
    7.7331    2.8450    0.0000 C   0  0  0  0  0  0  0  0  0  0  0  0
    6.0010    2.8450    0.0000 C   0  0  0  0  0  0  0  0  0  0  0  0
    6.8671    3.3450    0.0000 C   0  0  0  0  0  0  0  0  0  0  0  0
    8.5991   -2.6550    0.0000 C   0  0  0  0  0  0  0  0  0  0  0  0
    7.7331   -4.1550    0.0000 C   0  0  0  0  0  0  0  0  0  0  0  0
    9.4651   -3.1550    0.0000 C   0  0  0  0  0  0  0  0  0  0  0  0
    8.5991   -4.6550    0.0000 C   0  0  0  0  0  0  0  0  0  0  0  0
    9.4651   -4.1550    0.0000 C   0  0  0  0  0  0  0  0  0  0  0  0
   10.3312    1.3450    0.0000 C   0  0  0  0  0  0  0  0  0  0  0  0
   11.1972    1.8450    0.0000 C   0  0  0  0  0  0  0  0  0  0  0  0
   12.0632    1.3450    0.0000 C   0  0  0  0  0  0  0  0  0  0  0  0
   11.1972    2.8450    0.0000 C   0  0  0  0  0  0  0  0  0  0  0  0
   12.9292    1.8450    0.0000 C   0  0  0  0  0  0  0  0  0  0  0  0
   12.0632    3.3450    0.0000 C   0  0  0  0  0  0  0  0  0  0  0  0
   12.9292    2.8450    0.0000 C   0  0  0  0  0  0  0  0  0  0  0  0
    4.5981   -1.9650    0.0000 H   0  0  0  0  0  0  0  0  0  0  0  0
    4.2690   -1.7750    0.0000 H   0  0  0  0  0  0  0  0  0  0  0  0
    6.0010   -1.7750    0.0000 H   0  0  0  0  0  0  0  0  0  0  0  0
    4.2690    0.4650    0.0000 H   0  0  0  0  0  0  0  0  0  0  0  0
    6.0010    0.4650    0.0000 H   0  0  0  0  0  0  0  0  0  0  0  0
    3.8015    0.8199    0.0000 H   0  0  0  0  0  0  0  0  0  0  0  0
    3.0044    0.8199    0.0000 H   0  0  0  0  0  0  0  0  0  0  0  0
    4.5981   -2.9650    0.0000 H   0  0  0  0  0  0  0  0  0  0  0  0
    3.4030   -2.2750    0.0000 H   0  0  0  0  0  0  0  0  0  0  0  0
    2.0000    0.1550    0.0000 H   0  0  0  0  0  0  0  0  0  0  0  0
    5.4641    1.5350    0.0000 H   0  0  0  0  0  0  0  0  0  0  0  0
    8.2006    0.8701    0.0000 H   0  0  0  0  0  0  0  0  0  0  0  0
    8.9976    0.8701    0.0000 H   0  0  0  0  0  0  0  0  0  0  0  0
    8.2700    3.1550    0.0000 H   0  0  0  0  0  0  0  0  0  0  0  0
    5.4641    3.1550    0.0000 H   0  0  0  0  0  0  0  0  0  0  0  0
    8.5991   -2.0350    0.0000 H   0  0  0  0  0  0  0  0  0  0  0  0
    7.1962   -4.4650    0.0000 H   0  0  0  0  0  0  0  0  0  0  0  0
   10.0021   -2.8450    0.0000 H   0  0  0  0  0  0  0  0  0  0  0  0
    8.5991   -5.2750    0.0000 H   0  0  0  0  0  0  0  0  0  0  0  0
   10.0021   -4.4650    0.0000 H   0  0  0  0  0  0  0  0  0  0  0  0
    7.4040    4.6550    0.0000 H   0  0  0  0  0  0  0  0  0  0  0  0
   10.6603    3.1550    0.0000 H   0  0  0  0  0  0  0  0  0  0  0  0
   13.4662    1.5350    0.0000 H   0  0  0  0  0  0  0  0  0  0  0  0
   12.0632    3.9650    0.0000 H   0  0  0  0  0  0  0  0  0  0  0  0
   13.4662    3.1550    0.0000 H   0  0  0  0  0  0  0  0  0  0  0  0
   12.6002    0.0350    0.0000 H   0  0  0  0  0  0  0  0  0  0  0  0
  1 15  1  0  0  0  0
  1 16  1  0  0  0  0
 14  2  1  6  0  0  0
  2 19  1  0  0  0  0
 16  3  1  1  0  0  0
  3 18  1  0  0  0  0
 12  4  1  1  0  0  0
  4 46  1  0  0  0  0
 13  5  1  6  0  0  0
  5 47  1  0  0  0  0
  6 17  1  0  0  0  0
  6 48  1  0  0  0  0
  7 19  2  0  0  0  0
  8 23  1  0  0  0  0
  8 32  1  0  0  0  0
  9 26  1  0  0  0  0
  9 59  1  0  0  0  0
 10 32  2  0  0  0  0
 11 34  1  0  0  0  0
 11 64  1  0  0  0  0
 12 13  1  0  0  0  0
 12 14  1  0  0  0  0
 12 39  1  0  0  0  0
 13 15  1  0  0  0  0
 13 40  1  0  0  0  0
 14 16  1  0  0  0  0
 14 41  1  0  0  0  0
 15 17  1  1  0  0  0
 15 42  1  0  0  0  0
 16 43  1  0  0  0  0
 17 44  1  0  0  0  0
 17 45  1  0  0  0  0
 18 20  2  0  0  0  0
 18 21  1  0  0  0  0
 19 22  1  0  0  0  0
 20 23  1  0  0  0  0
 20 24  1  0  0  0  0
 21 25  2  0  0  0  0
 21 49  1  0  0  0  0
 22 27  2  0  0  0  0
 22 28  1  0  0  0  0
 23 50  1  0  0  0  0
 23 51  1  0  0  0  0
 24 26  2  0  0  0  0
 24 52  1  0  0  0  0
 25 26  1  0  0  0  0
 25 53  1  0  0  0  0
 27 29  1  0  0  0  0
 27 54  1  0  0  0  0
 28 30  2  0  0  0  0
 28 55  1  0  0  0  0
 29 31  2  0  0  0  0
 29 56  1  0  0  0  0
 30 31  1  0  0  0  0
 30 57  1  0  0  0  0
 31 58  1  0  0  0  0
 32 33  1  0  0  0  0
 33 34  1  0  0  0  0
 33 35  2  0  0  0  0
 34 36  2  0  0  0  0
 35 37  1  0  0  0  0
 35 60  1  0  0  0  0
 36 38  1  0  0  0  0
 36 61  1  0  0  0  0
 37 38  2  0  0  0  0
 37 62  1  0  0  0  0
 38 63  1  0  0  0  0
M  END
> <PUBCHEM_COMPOUND_CID>
44577125

> <PUBCHEM_COMPOUND_CANONICALIZED>
1

> <PUBCHEM_CACTVS_COMPLEXITY>
772

> <PUBCHEM_CACTVS_HBOND_ACCEPTOR>
11

> <PUBCHEM_CACTVS_HBOND_DONOR>
5

> <PUBCHEM_CACTVS_ROTATABLE_BOND>
10

> <PUBCHEM_CACTVS_SUBSKEYS>
AAADceB4PAAAAAAAAAAAAAAAAAAAAAAAAAA0YMEAAAAAAAABUAAAGgAACAAADBSwmAMwDoAABgCIAiDSCAACCAAkIAAIiAEGCMgdNzaGNRqieWCl4BEPuYfI6DyOAQABAAAIAAACAAIAABAAAAAAAAAAAA==

> <PUBCHEM_IUPAC_OPENEYE_NAME>
[2-[(2S,3R,4S,5S,6R)-3-benzoyloxy-4,5-dihydroxy-6-(hydroxymethyl)tetrahydropyran-2-yl]oxy-5-hydroxy-phenyl]methyl 2-hydroxybenzoate

> <PUBCHEM_IUPAC_CAS_NAME>
2-hydroxybenzoic acid [2-[[(2S,3R,4S,5S,6R)-3-benzoyloxy-4,5-dihydroxy-6-(hydroxymethyl)-2-oxanyl]oxy]-5-hydroxyphenyl]methyl ester

> <PUBCHEM_IUPAC_NAME_MARKUP>
[2-[(2<I>S</I>,3<I>R</I>,4<I>S</I>,5<I>S</I>,6<I>R</I>)-3-benzoyloxy-4,5-dihydroxy-6-(hydroxymethyl)oxan-2-yl]oxy-5-hydroxyphenyl]methyl 2-hydroxybenzoate

> <PUBCHEM_IUPAC_NAME>
[2-[(2S,3R,4S,5S,6R)-3-benzoyloxy-4,5-dihydroxy-6-(hydroxymethyl)oxan-2-yl]oxy-5-hydroxyphenyl]methyl 2-hydroxybenzoate

> <PUBCHEM_IUPAC_SYSTEMATIC_NAME>
[2-[(2S,3R,4S,5S,6R)-6-(hydroxymethyl)-4,5-bis(oxidanyl)-3-(phenylcarbonyloxy)oxan-2-yl]oxy-5-oxidanyl-phenyl]methyl 2-oxidanylbenzoate

> <PUBCHEM_IUPAC_TRADITIONAL_NAME>
2-hydroxybenzoic acid [2-[(2S,3R,4S,5S,6R)-3-benzoyloxy-4,5-dihydroxy-6-methylol-tetrahydropyran-2-yl]oxy-5-hydroxy-benzyl] ester

> <PUBCHEM_IUPAC_INCHI>
InChI=1S/C27H26O11/c28-13-21-22(31)23(32)24(38-25(33)15-6-2-1-3-7-15)27(37-21)36-20-11-10-17(29)12-16(20)14-35-26(34)18-8-4-5-9-19(18)30/h1-12,21-24,27-32H,13-14H2/t21-,22-,23+,24-,27-/m1/s1

> <PUBCHEM_IUPAC_INCHIKEY>
UTRVZPDCXSMOPG-YIHAFMAISA-N

> <PUBCHEM_XLOGP3_AA>
3.2

> <PUBCHEM_EXACT_MASS>
526.14751164

> <PUBCHEM_MOLECULAR_FORMULA>
C27H26O11

> <PUBCHEM_MOLECULAR_WEIGHT>
526.5

> <PUBCHEM_OPENEYE_CAN_SMILES>
C1=CC=C(C=C1)C(=O)OC2C(C(C(OC2OC3=C(C=C(C=C3)O)COC(=O)C4=CC=CC=C4O)CO)O)O

> <PUBCHEM_OPENEYE_ISO_SMILES>
C1=CC=C(C=C1)C(=O)O[C@@H]2[C@H]([C@@H]([C@H](O[C@H]2OC3=C(C=C(C=C3)O)COC(=O)C4=CC=CC=C4O)CO)O)O

> <PUBCHEM_CACTVS_TPSA>
172

> <PUBCHEM_MONOISOTOPIC_WEIGHT>
526.14751164

> <PUBCHEM_TOTAL_CHARGE>
0

> <PUBCHEM_HEAVY_ATOM_COUNT>
38

> <PUBCHEM_ATOM_DEF_STEREO_COUNT>
5

> <PUBCHEM_ATOM_UDEF_STEREO_COUNT>
0

> <PUBCHEM_BOND_DEF_STEREO_COUNT>
0

> <PUBCHEM_BOND_UDEF_STEREO_COUNT>
0

> <PUBCHEM_ISOTOPIC_ATOM_COUNT>
0

> <PUBCHEM_COMPONENT_COUNT>
1

> <PUBCHEM_CACTVS_TAUTO_COUNT>
-1

> <PUBCHEM_COORDINATE_TYPE>
1
5
255

> <PUBCHEM_BONDANNOTATIONS>
15  17  5
18  20  8
18  21  8
14  2  6
20  24  8
21  25  8
22  27  8
22  28  8
24  26  8
25  26  8
27  29  8
28  30  8
29  31  8
16  3  5
30  31  8
33  34  8
33  35  8
34  36  8
35  37  8
36  38  8
37  38  8
12  4  5
13  5  6

$$$$
