 
  -OEChem-10192103292D

 53 55  0     1  0  0  0  0  0999 V2000
    4.2690   -0.1144    0.0000 O   0  0  0  0  0  0  0  0  0  0  0  0
    5.1350   -1.6144    0.0000 O   0  0  0  0  0  0  0  0  0  0  0  0
    6.0010    1.8856    0.0000 O   0  0  0  0  0  0  0  0  0  0  0  0
    6.0010   -1.1144    0.0000 O   0  0  0  0  0  0  0  0  0  0  0  0
    2.5369   -1.1144    0.0000 O   0  0  0  0  0  0  0  0  0  0  0  0
    7.7331   -0.1144    0.0000 O   0  0  0  0  0  0  0  0  0  0  0  0
    2.5369   -3.1144    0.0000 O   0  0  0  0  0  0  0  0  0  0  0  0
    7.7331    1.8856    0.0000 O   0  0  0  0  0  0  0  0  0  0  0  0
    4.2690   -4.1144    0.0000 O   0  0  0  0  0  0  0  0  0  0  0  0
    4.2690    2.8856    0.0000 O   0  0  0  0  0  0  0  0  0  0  0  0
    6.8671   -2.6144    0.0000 O   0  0  0  0  0  0  0  0  0  0  0  0
    9.4932    3.1644    0.0000 O   0  0  0  0  0  0  0  0  0  0  0  0
    5.9730    3.1644    0.0000 O   0  0  0  0  0  0  0  0  0  0  0  0
    7.7331    2.8856    0.0000 N   0  0  0  0  0  0  0  0  0  0  0  0
    5.1350    0.3856    0.0000 C   0  0  1  0  0  0  0  0  0  0  0  0
    6.0010   -0.1144    0.0000 C   0  0  1  0  0  0  0  0  0  0  0  0
    5.1350    1.3856    0.0000 C   0  0  1  0  0  0  0  0  0  0  0  0
    4.2690   -1.1144    0.0000 C   0  0  1  0  0  0  0  0  0  0  0  0
    3.4030   -1.6144    0.0000 C   0  0  1  0  0  0  0  0  0  0  0  0
    6.8671    0.3856    0.0000 C   0  0  2  0  0  0  0  0  0  0  0  0
    3.4030   -2.6144    0.0000 C   0  0  2  0  0  0  0  0  0  0  0  0
    4.2690   -3.1144    0.0000 C   0  0  1  0  0  0  0  0  0  0  0  0
    5.1350   -2.6144    0.0000 C   0  0  1  0  0  0  0  0  0  0  0  0
    6.8671    1.3856    0.0000 C   0  0  1  0  0  0  0  0  0  0  0  0
    4.2690    1.8856    0.0000 C   0  0  0  0  0  0  0  0  0  0  0  0
    6.0010   -3.1144    0.0000 C   0  0  0  0  0  0  0  0  0  0  0  0
    8.5421    3.4734    0.0000 C   0  0  0  0  0  0  0  0  0  0  0  0
    6.9241    3.4734    0.0000 C   0  0  0  0  0  0  0  0  0  0  0  0
    8.2331    4.4244    0.0000 C   0  0  0  0  0  0  0  0  0  0  0  0
    7.2331    4.4244    0.0000 C   0  0  0  0  0  0  0  0  0  0  0  0
    5.1350   -0.2344    0.0000 H   0  0  0  0  0  0  0  0  0  0  0  0
    5.4641   -0.4244    0.0000 H   0  0  0  0  0  0  0  0  0  0  0  0
    5.1350    2.0056    0.0000 H   0  0  0  0  0  0  0  0  0  0  0  0
    3.7320   -0.8044    0.0000 H   0  0  0  0  0  0  0  0  0  0  0  0
    3.4030   -0.9944    0.0000 H   0  0  0  0  0  0  0  0  0  0  0  0
    6.8671   -0.2344    0.0000 H   0  0  0  0  0  0  0  0  0  0  0  0
    3.4030   -3.2344    0.0000 H   0  0  0  0  0  0  0  0  0  0  0  0
    4.8059   -3.4244    0.0000 H   0  0  0  0  0  0  0  0  0  0  0  0
    5.6720   -2.3044    0.0000 H   0  0  0  0  0  0  0  0  0  0  0  0
    7.4040    1.0756    0.0000 H   0  0  0  0  0  0  0  0  0  0  0  0
    3.6584    1.9932    0.0000 H   0  0  0  0  0  0  0  0  0  0  0  0
    4.0569    1.3030    0.0000 H   0  0  0  0  0  0  0  0  0  0  0  0
    5.6025   -3.5894    0.0000 H   0  0  0  0  0  0  0  0  0  0  0  0
    6.3996   -3.5894    0.0000 H   0  0  0  0  0  0  0  0  0  0  0  0
    6.5380   -1.4244    0.0000 H   0  0  0  0  0  0  0  0  0  0  0  0
    2.0000   -1.4244    0.0000 H   0  0  0  0  0  0  0  0  0  0  0  0
    8.2700    0.1956    0.0000 H   0  0  0  0  0  0  0  0  0  0  0  0
    2.5369   -3.7344    0.0000 H   0  0  0  0  0  0  0  0  0  0  0  0
    4.8059   -4.4244    0.0000 H   0  0  0  0  0  0  0  0  0  0  0  0
    3.7320    3.1956    0.0000 H   0  0  0  0  0  0  0  0  0  0  0  0
    7.4040   -2.9244    0.0000 H   0  0  0  0  0  0  0  0  0  0  0  0
    8.5975    4.9260    0.0000 H   0  0  0  0  0  0  0  0  0  0  0  0
    6.8687    4.9260    0.0000 H   0  0  0  0  0  0  0  0  0  0  0  0
 15  1  1  6  0  0  0
 18  1  1  1  0  0  0
  2 18  1  0  0  0  0
  2 23  1  0  0  0  0
  3 17  1  0  0  0  0
  3 24  1  0  0  0  0
 16  4  1  1  0  0  0
  4 45  1  0  0  0  0
 19  5  1  1  0  0  0
  5 46  1  0  0  0  0
 20  6  1  6  0  0  0
  6 47  1  0  0  0  0
 21  7  1  6  0  0  0
  7 48  1  0  0  0  0
  8 14  1  0  0  0  0
 24  8  1  1  0  0  0
 22  9  1  1  0  0  0
  9 49  1  0  0  0  0
 10 25  1  0  0  0  0
 10 50  1  0  0  0  0
 11 26  1  0  0  0  0
 11 51  1  0  0  0  0
 12 27  2  0  0  0  0
 13 28  2  0  0  0  0
 14 27  1  0  0  0  0
 14 28  1  0  0  0  0
 15 16  1  0  0  0  0
 15 17  1  0  0  0  0
 15 31  1  0  0  0  0
 16 20  1  0  0  0  0
 16 32  1  0  0  0  0
 17 25  1  1  0  0  0
 17 33  1  0  0  0  0
 18 19  1  0  0  0  0
 18 34  1  0  0  0  0
 19 21  1  0  0  0  0
 19 35  1  0  0  0  0
 20 24  1  0  0  0  0
 20 36  1  0  0  0  0
 21 22  1  0  0  0  0
 21 37  1  0  0  0  0
 22 23  1  0  0  0  0
 22 38  1  0  0  0  0
 23 26  1  6  0  0  0
 23 39  1  0  0  0  0
 24 40  1  0  0  0  0
 25 41  1  0  0  0  0
 25 42  1  0  0  0  0
 26 43  1  0  0  0  0
 26 44  1  0  0  0  0
 27 29  1  0  0  0  0
 28 30  1  0  0  0  0
 29 30  2  0  0  0  0
 29 52  1  0  0  0  0
 30 53  1  0  0  0  0
M  END
> <PUBCHEM_COMPOUND_CID>
129568

> <PUBCHEM_COMPOUND_CANONICALIZED>
1

> <PUBCHEM_CACTVS_COMPLEXITY>
656

> <PUBCHEM_CACTVS_HBOND_ACCEPTOR>
13

> <PUBCHEM_CACTVS_HBOND_DONOR>
7

> <PUBCHEM_CACTVS_ROTATABLE_BOND>
6

> <PUBCHEM_CACTVS_SUBSKEYS>
AAADceB6PAAAAAAAAAAAAAAAAAAAAQAAAAAkSAAAAAAAAAAAAAAAHgAECAAACBSxgAMACAIQBgCIACFSEACAAAAAAAAoCAAAAEAREAIAAAAiQAAFBCCHAYHAYAwAAAAAAAAAAAAAAAAAAAAAAAAAAAAAAA==

> <PUBCHEM_IUPAC_OPENEYE_NAME>
1-[(2S,3R,4R,5S,6R)-3,4-dihydroxy-6-(hydroxymethyl)-5-[(2R,3R,4S,5S,6R)-3,4,5-trihydroxy-6-(hydroxymethyl)tetrahydropyran-2-yl]oxy-tetrahydropyran-2-yl]oxypyrrole-2,5-dione

> <PUBCHEM_IUPAC_CAS_NAME>
1-[[(2S,3R,4R,5S,6R)-3,4-dihydroxy-6-(hydroxymethyl)-5-[[(2R,3R,4S,5S,6R)-3,4,5-trihydroxy-6-(hydroxymethyl)-2-oxanyl]oxy]-2-oxanyl]oxy]pyrrole-2,5-dione

> <PUBCHEM_IUPAC_NAME_MARKUP>
1-[(2<I>S</I>,3<I>R</I>,4<I>R</I>,5<I>S</I>,6<I>R</I>)-3,4-dihydroxy-6-(hydroxymethyl)-5-[(2<I>R</I>,3<I>R</I>,4<I>S</I>,5<I>S</I>,6<I>R</I>)-3,4,5-trihydroxy-6-(hydroxymethyl)oxan-2-yl]oxyoxan-2-yl]oxypyrrole-2,5-dione

> <PUBCHEM_IUPAC_NAME>
1-[(2S,3R,4R,5S,6R)-3,4-dihydroxy-6-(hydroxymethyl)-5-[(2R,3R,4S,5S,6R)-3,4,5-trihydroxy-6-(hydroxymethyl)oxan-2-yl]oxyoxan-2-yl]oxypyrrole-2,5-dione

> <PUBCHEM_IUPAC_SYSTEMATIC_NAME>
1-[(2S,3R,4R,5S,6R)-6-(hydroxymethyl)-5-[(2R,3R,4S,5S,6R)-6-(hydroxymethyl)-3,4,5-tris(oxidanyl)oxan-2-yl]oxy-3,4-bis(oxidanyl)oxan-2-yl]oxypyrrole-2,5-dione

> <PUBCHEM_IUPAC_TRADITIONAL_NAME>
1-[(2S,3R,4R,5S,6R)-3,4-dihydroxy-6-methylol-5-[(2R,3R,4S,5S,6R)-3,4,5-trihydroxy-6-methylol-tetrahydropyran-2-yl]oxy-tetrahydropyran-2-yl]oxy-3-pyrroline-2,5-quinone

> <PUBCHEM_IUPAC_INCHI>
InChI=1S/C16H23NO13/c18-3-5-9(22)10(23)12(25)15(27-5)29-14-6(4-19)28-16(13(26)11(14)24)30-17-7(20)1-2-8(17)21/h1-2,5-6,9-16,18-19,22-26H,3-4H2/t5-,6-,9-,10+,11-,12-,13-,14-,15-,16+/m1/s1

> <PUBCHEM_IUPAC_INCHIKEY>
DLQYHMAWCJLUJE-DLZQOPQVSA-N

> <PUBCHEM_XLOGP3_AA>
-4.7

> <PUBCHEM_EXACT_MASS>
437.11693979

> <PUBCHEM_MOLECULAR_FORMULA>
C16H23NO13

> <PUBCHEM_MOLECULAR_WEIGHT>
437.35

> <PUBCHEM_OPENEYE_CAN_SMILES>
C1=CC(=O)N(C1=O)OC2C(C(C(C(O2)CO)OC3C(C(C(C(O3)CO)O)O)O)O)O

> <PUBCHEM_OPENEYE_ISO_SMILES>
C1=CC(=O)N(C1=O)O[C@H]2[C@@H]([C@H]([C@@H]([C@H](O2)CO)O[C@@H]3[C@@H]([C@H]([C@@H]([C@H](O3)CO)O)O)O)O)O

> <PUBCHEM_CACTVS_TPSA>
216

> <PUBCHEM_MONOISOTOPIC_WEIGHT>
437.11693979

> <PUBCHEM_TOTAL_CHARGE>
0

> <PUBCHEM_HEAVY_ATOM_COUNT>
30

> <PUBCHEM_ATOM_DEF_STEREO_COUNT>
10

> <PUBCHEM_ATOM_UDEF_STEREO_COUNT>
0

> <PUBCHEM_BOND_DEF_STEREO_COUNT>
0

> <PUBCHEM_BOND_UDEF_STEREO_COUNT>
0

> <PUBCHEM_ISOTOPIC_ATOM_COUNT>
0

> <PUBCHEM_COMPONENT_COUNT>
1

> <PUBCHEM_CACTVS_TAUTO_COUNT>
1

> <PUBCHEM_COORDINATE_TYPE>
1
5
255

> <PUBCHEM_BONDANNOTATIONS>
15  1  6
18  1  5
17  25  5
23  26  6
16  4  5
19  5  5
20  6  6
21  7  6
24  8  5
22  9  5

$$$$
