 
  -OEChem-10192103572D

 71 73  0     1  0  0  0  0  0999 V2000
    6.5010    0.4615    0.0000 O   0  0  0  0  0  0  0  0  0  0  0  0
    5.2690   -0.4045    0.0000 O   0  0  0  0  0  0  0  0  0  0  0  0
    8.5835    0.7036    0.0000 O   0  0  0  0  0  0  0  0  0  0  0  0
    5.1350    0.0955    0.0000 O   0  0  0  0  0  0  0  0  0  0  0  0
    8.8519   -1.0782    0.0000 O   0  0  0  0  0  0  0  0  0  0  0  0
    8.5835    0.0195    0.0000 O   0  0  0  0  0  0  0  0  0  0  0  0
    5.6350   -2.7705    0.0000 O   0  0  0  0  0  0  0  0  0  0  0  0
    5.3087   -1.8893    0.0000 O   0  0  0  0  0  0  0  0  0  0  0  0
    8.7331   -2.4045    0.0000 O   0  0  0  0  0  0  0  0  0  0  0  0
    7.0010   -3.4045    0.0000 O   0  0  0  0  0  0  0  0  0  0  0  0
    5.9381    1.3465    0.0000 O   0  0  0  0  0  0  0  0  0  0  0  0
    3.9271   -2.3442    0.0000 O   0  0  0  0  0  0  0  0  0  0  0  0
    6.2854    2.6319    0.0000 O   0  0  0  0  0  0  0  0  0  0  0  0
    2.5369   -1.4045    0.0000 O   0  0  0  0  0  0  0  0  0  0  0  0
    8.1648    3.3160    0.0000 O   0  0  0  0  0  0  0  0  0  0  0  0
    2.5369    0.5955    0.0000 O   0  0  0  0  0  0  0  0  0  0  0  0
    9.8705    3.0152    0.0000 O   0  0  0  0  0  0  0  0  0  0  0  0
    3.4030    2.0955    0.0000 O   0  0  0  0  0  0  0  0  0  0  0  0
    7.0010   -0.4045    0.0000 C   0  0  1  0  0  0  0  0  0  0  0  0
    6.1350   -0.9045    0.0000 C   0  0  1  0  0  0  0  0  0  0  0  0
    7.8671   -0.9045    0.0000 C   0  0  2  0  0  0  0  0  0  0  0  0
    7.6438    0.3615    0.0000 C   0  0  2  0  0  0  0  0  0  0  0  0
    6.1350   -1.9045    0.0000 C   0  0  1  0  0  0  0  0  0  0  0  0
    5.1350   -0.9045    0.0000 C   0  0  1  0  0  0  0  0  0  0  0  0
    7.8671   -1.9045    0.0000 C   0  0  1  0  0  0  0  0  0  0  0  0
    7.0010   -2.4045    0.0000 C   0  0  2  0  0  0  0  0  0  0  0  0
    6.8778    1.0043    0.0000 C   0  0  1  0  0  0  0  0  0  0  0  0
    4.2690   -1.4045    0.0000 C   0  0  1  0  0  0  0  0  0  0  0  0
    8.8068   -0.5625    0.0000 C   0  0  0  0  0  0  0  0  0  0  0  0
    7.0514    1.9891    0.0000 C   0  0  2  0  0  0  0  0  0  0  0  0
    3.4030   -0.9045    0.0000 C   0  0  2  0  0  0  0  0  0  0  0  0
    8.7572    1.6884    0.0000 C   0  0  1  0  0  0  0  0  0  0  0  0
    4.2690    0.5955    0.0000 C   0  0  1  0  0  0  0  0  0  0  0  0
    7.9911    2.3312    0.0000 C   0  0  2  0  0  0  0  0  0  0  0  0
    3.4030    0.0955    0.0000 C   0  0  2  0  0  0  0  0  0  0  0  0
    9.6969    2.0304    0.0000 C   0  0  0  0  0  0  0  0  0  0  0  0
    4.2690    1.5955    0.0000 C   0  0  0  0  0  0  0  0  0  0  0  0
    5.5361   -1.7440    0.0000 H   0  0  0  0  0  0  0  0  0  0  0  0
    8.4040   -1.5945    0.0000 H   0  0  0  0  0  0  0  0  0  0  0  0
    7.5380   -2.7145    0.0000 H   0  0  0  0  0  0  0  0  0  0  0  0
    6.5677    0.4674    0.0000 H   0  0  0  0  0  0  0  0  0  0  0  0
    4.7440   -1.8030    0.0000 H   0  0  0  0  0  0  0  0  0  0  0  0
    9.0188   -1.1451    0.0000 H   0  0  0  0  0  0  0  0  0  0  0  0
    9.3894   -0.3504    0.0000 H   0  0  0  0  0  0  0  0  0  0  0  0
    8.5947    0.0201    0.0000 H   0  0  0  0  0  0  0  0  0  0  0  0
    7.1591    2.5997    0.0000 H   0  0  0  0  0  0  0  0  0  0  0  0
    5.8904    0.3540    0.0000 H   0  0  0  0  0  0  0  0  0  0  0  0
    3.4030   -1.5245    0.0000 H   0  0  0  0  0  0  0  0  0  0  0  0
    4.6490   -0.4045    0.0000 H   0  0  0  0  0  0  0  0  0  0  0  0
    9.2321    1.2898    0.0000 H   0  0  0  0  0  0  0  0  0  0  0  0
    4.8059    0.9055    0.0000 H   0  0  0  0  0  0  0  0  0  0  0  0
    8.5737    2.5432    0.0000 H   0  0  0  0  0  0  0  0  0  0  0  0
    3.4030    0.7155    0.0000 H   0  0  0  0  0  0  0  0  0  0  0  0
    9.0639   -1.6608    0.0000 H   0  0  0  0  0  0  0  0  0  0  0  0
    9.1941    0.1272    0.0000 H   0  0  0  0  0  0  0  0  0  0  0  0
    5.9450   -3.3075    0.0000 H   0  0  0  0  0  0  0  0  0  0  0  0
    4.8337   -2.2878    0.0000 H   0  0  0  0  0  0  0  0  0  0  0  0
    8.7331   -3.0245    0.0000 H   0  0  0  0  0  0  0  0  0  0  0  0
    7.5380   -3.7145    0.0000 H   0  0  0  0  0  0  0  0  0  0  0  0
    5.8305    1.9570    0.0000 H   0  0  0  0  0  0  0  0  0  0  0  0
    3.3164   -2.4519    0.0000 H   0  0  0  0  0  0  0  0  0  0  0  0
    9.8045    1.4198    0.0000 H   0  0  0  0  0  0  0  0  0  0  0  0
   10.3169    2.0304    0.0000 H   0  0  0  0  0  0  0  0  0  0  0  0
    4.8796    1.4878    0.0000 H   0  0  0  0  0  0  0  0  0  0  0  0
    4.4810    2.1781    0.0000 H   0  0  0  0  0  0  0  0  0  0  0  0
    6.3930    3.2425    0.0000 H   0  0  0  0  0  0  0  0  0  0  0  0
    2.0000   -1.0945    0.0000 H   0  0  0  0  0  0  0  0  0  0  0  0
    7.6898    3.7145    0.0000 H   0  0  0  0  0  0  0  0  0  0  0  0
    2.0000    0.2855    0.0000 H   0  0  0  0  0  0  0  0  0  0  0  0
   10.4531    3.2272    0.0000 H   0  0  0  0  0  0  0  0  0  0  0  0
    3.4030    2.7155    0.0000 H   0  0  0  0  0  0  0  0  0  0  0  0
 19  1  1  6  0  0  0
  1 47  1  0  0  0  0
 20  2  1  1  0  0  0
  2 49  1  0  0  0  0
  3 22  1  0  0  0  0
  3 32  1  0  0  0  0
  4 24  1  0  0  0  0
  4 33  1  0  0  0  0
 21  5  1  1  0  0  0
  5 54  1  0  0  0  0
 22  6  1  1  0  0  0
  6 55  1  0  0  0  0
 23  7  1  1  0  0  0
  7 56  1  0  0  0  0
 24  8  1  6  0  0  0
  8 57  1  0  0  0  0
 25  9  1  6  0  0  0
  9 58  1  0  0  0  0
 26 10  1  6  0  0  0
 10 59  1  0  0  0  0
 27 11  1  6  0  0  0
 11 60  1  0  0  0  0
 28 12  1  6  0  0  0
 12 61  1  0  0  0  0
 30 13  1  1  0  0  0
 13 66  1  0  0  0  0
 31 14  1  1  0  0  0
 14 67  1  0  0  0  0
 34 15  1  1  0  0  0
 15 68  1  0  0  0  0
 35 16  1  1  0  0  0
 16 69  1  0  0  0  0
 17 36  1  0  0  0  0
 17 70  1  0  0  0  0
 18 37  1  0  0  0  0
 18 71  1  0  0  0  0
 19 20  1  0  0  0  0
 19 21  1  0  0  0  0
 19 22  1  0  0  0  0
 20 23  1  0  0  0  0
 20 24  1  0  0  0  0
 21 25  1  0  0  0  0
 21 29  1  0  0  0  0
 22 27  1  0  0  0  0
 23 26  1  0  0  0  0
 23 38  1  0  0  0  0
 24 28  1  0  0  0  0
 25 26  1  0  0  0  0
 25 39  1  0  0  0  0
 26 40  1  0  0  0  0
 27 30  1  0  0  0  0
 27 41  1  0  0  0  0
 28 31  1  0  0  0  0
 28 42  1  0  0  0  0
 29 43  1  0  0  0  0
 29 44  1  0  0  0  0
 29 45  1  0  0  0  0
 30 34  1  0  0  0  0
 30 46  1  0  0  0  0
 31 35  1  0  0  0  0
 31 48  1  0  0  0  0
 32 34  1  0  0  0  0
 32 36  1  1  0  0  0
 32 50  1  0  0  0  0
 33 35  1  0  0  0  0
 33 37  1  1  0  0  0
 33 51  1  0  0  0  0
 34 52  1  0  0  0  0
 35 53  1  0  0  0  0
 36 62  1  0  0  0  0
 36 63  1  0  0  0  0
 37 64  1  0  0  0  0
 37 65  1  0  0  0  0
M  END
> <PUBCHEM_COMPOUND_CID>
129845678

> <PUBCHEM_COMPOUND_CANONICALIZED>
1

> <PUBCHEM_CACTVS_COMPLEXITY>
850

> <PUBCHEM_CACTVS_HBOND_ACCEPTOR>
18

> <PUBCHEM_CACTVS_HBOND_DONOR>
16

> <PUBCHEM_CACTVS_ROTATABLE_BOND>
4

> <PUBCHEM_CACTVS_SUBSKEYS>
AAADcfB4PgAAAAAAAAAAAAAAAAAAAAAAAAA0SIAAAAAAAAAAAAAAGgAACAAADFSggAICCAAABgAAAAAAAAAAAAAAAAAAAAAAAAAREAIAAAACQAAFAAAHAAHA4PwOgAAAAAAAAABCAAYQADCAAAAAAAAAAA==

> <PUBCHEM_IUPAC_OPENEYE_NAME>
(1S,2R,3R,4R,5S,6R)-1-methyl-3-[(2R,3R,4S,5R,6R)-2,3,4,5-tetrahydroxy-6-(hydroxymethyl)tetrahydropyran-2-yl]-2-[(2S,3R,4S,5R,6R)-2,3,4,5-tetrahydroxy-6-(hydroxymethyl)tetrahydropyran-2-yl]cyclohexane-1,2,3,4,5,6-hexol

> <PUBCHEM_IUPAC_CAS_NAME>
(1S,2R,3R,4R,5S,6R)-1-methyl-3-[(2R,3R,4S,5R,6R)-2,3,4,5-tetrahydroxy-6-(hydroxymethyl)-2-oxanyl]-2-[(2S,3R,4S,5R,6R)-2,3,4,5-tetrahydroxy-6-(hydroxymethyl)-2-oxanyl]cyclohexane-1,2,3,4,5,6-hexol

> <PUBCHEM_IUPAC_NAME_MARKUP>
(1<I>S</I>,2<I>R</I>,3<I>R</I>,4<I>R</I>,5<I>S</I>,6<I>R</I>)-1-methyl-3-[(2<I>R</I>,3<I>R</I>,4<I>S</I>,5<I>R</I>,6<I>R</I>)-2,3,4,5-tetrahydroxy-6-(hydroxymethyl)oxan-2-yl]-2-[(2<I>S</I>,3<I>R</I>,4<I>S</I>,5<I>R</I>,6<I>R</I>)-2,3,4,5-tetrahydroxy-6-(hydroxymethyl)oxan-2-yl]cyclohexane-1,2,3,4,5,6-hexol

> <PUBCHEM_IUPAC_NAME>
(1S,2R,3R,4R,5S,6R)-1-methyl-3-[(2R,3R,4S,5R,6R)-2,3,4,5-tetrahydroxy-6-(hydroxymethyl)oxan-2-yl]-2-[(2S,3R,4S,5R,6R)-2,3,4,5-tetrahydroxy-6-(hydroxymethyl)oxan-2-yl]cyclohexane-1,2,3,4,5,6-hexol

> <PUBCHEM_IUPAC_SYSTEMATIC_NAME>
(1R,2R,3S,4R,5S,6R)-1-[(2R,3R,4S,5R,6R)-6-(hydroxymethyl)-2,3,4,5-tetrakis(oxidanyl)oxan-2-yl]-2-[(2S,3R,4S,5R,6R)-6-(hydroxymethyl)-2,3,4,5-tetrakis(oxidanyl)oxan-2-yl]-3-methyl-cyclohexane-1,2,3,4,5,6-hexol

> <PUBCHEM_IUPAC_TRADITIONAL_NAME>
(1S,2R,3R,4R,5S,6R)-1-methyl-3-[(2R,3R,4S,5R,6R)-2,3,4,5-tetrahydroxy-6-methylol-tetrahydropyran-2-yl]-2-[(2S,3R,4S,5R,6R)-2,3,4,5-tetrahydroxy-6-methylol-tetrahydropyran-2-yl]cyclohexane-1,2,3,4,5,6-hexol

> <PUBCHEM_IUPAC_INCHI>
InChI=1S/C19H34O18/c1-15(31)11(27)10(26)12(28)16(32,17(33)13(29)8(24)6(22)4(2-20)36-17)19(15,35)18(34)14(30)9(25)7(23)5(3-21)37-18/h4-14,20-35H,2-3H2,1H3/t4-,5-,6+,7+,8+,9+,10+,11-,12-,13-,14-,15+,16+,17-,18+,19-/m1/s1

> <PUBCHEM_IUPAC_INCHIKEY>
KXDZDLITQDZXGE-RSGZPODNSA-N

> <PUBCHEM_XLOGP3_AA>
-9.9

> <PUBCHEM_EXACT_MASS>
550.17451423

> <PUBCHEM_MOLECULAR_FORMULA>
C19H34O18

> <PUBCHEM_MOLECULAR_WEIGHT>
550.5

> <PUBCHEM_OPENEYE_CAN_SMILES>
CC1(C(C(C(C(C1(C2(C(C(C(C(O2)CO)O)O)O)O)O)(C3(C(C(C(C(O3)CO)O)O)O)O)O)O)O)O)O

> <PUBCHEM_OPENEYE_ISO_SMILES>
C[C@@]1([C@@H]([C@@H]([C@H]([C@@]([C@]1([C@@]2([C@@H]([C@H]([C@H]([C@H](O2)CO)O)O)O)O)O)([C@]3([C@@H]([C@H]([C@H]([C@H](O3)CO)O)O)O)O)O)O)O)O)O

> <PUBCHEM_CACTVS_TPSA>
342

> <PUBCHEM_MONOISOTOPIC_WEIGHT>
550.17451423

> <PUBCHEM_TOTAL_CHARGE>
0

> <PUBCHEM_HEAVY_ATOM_COUNT>
37

> <PUBCHEM_ATOM_DEF_STEREO_COUNT>
16

> <PUBCHEM_ATOM_UDEF_STEREO_COUNT>
0

> <PUBCHEM_BOND_DEF_STEREO_COUNT>
0

> <PUBCHEM_BOND_UDEF_STEREO_COUNT>
0

> <PUBCHEM_ISOTOPIC_ATOM_COUNT>
0

> <PUBCHEM_COMPONENT_COUNT>
1

> <PUBCHEM_CACTVS_TAUTO_COUNT>
-1

> <PUBCHEM_COORDINATE_TYPE>
1
5
255

> <PUBCHEM_BONDANNOTATIONS>
19  1  6
26  10  6
27  11  6
28  12  6
30  13  5
31  14  5
34  15  5
35  16  5
20  2  5
32  36  5
33  37  5
21  5  5
22  6  5
23  7  5
24  8  6
25  9  6

$$$$
