 
  -OEChem-10192104312D

 86 86  0     1  0  0  0  0  0999 V2000
    6.0010   -1.5950    0.0000 S   0  0  0  0  0  0  0  0  0  0  0  0
    5.6350   -2.9610    0.0000 S   0  0  0  0  0  0  0  0  0  0  0  0
    5.1350   -2.0950    0.0000 P   0  0  3  0  0  0  0  0  0  0  0  0
    4.2690   -2.5950    0.0000 O   0  0  0  0  0  0  0  0  0  0  0  0
    2.5369   -3.5950    0.0000 O   0  0  0  0  0  0  0  0  0  0  0  0
    6.0010   -3.5950    0.0000 O   0  0  0  0  0  0  0  0  0  0  0  0
    2.5369   -5.5950    0.0000 O   0  0  0  0  0  0  0  0  0  0  0  0
    6.0010   -5.5950    0.0000 O   0  0  0  0  0  0  0  0  0  0  0  0
    4.2690   -6.5950    0.0000 O   0  0  0  0  0  0  0  0  0  0  0  0
    4.6350   -1.2290    0.0000 O   0  0  0  0  0  0  0  0  0  0  0  0
    6.8671    0.9050    0.0000 O   0  0  0  0  0  0  0  0  0  0  0  0
    8.5991   -0.0950    0.0000 O   0  0  0  0  0  0  0  0  0  0  0  0
    8.5991    0.9050    0.0000 O   0  0  0  0  0  0  0  0  0  0  0  0
    9.4651   -1.5950    0.0000 O   0  0  0  0  0  0  0  0  0  0  0  0
    4.2690   -3.5950    0.0000 C   0  0  0  0  0  0  0  0  0  0  0  0
    3.4030   -4.0950    0.0000 C   0  0  1  0  0  0  0  0  0  0  0  0
    5.1350   -4.0950    0.0000 C   0  0  1  0  0  0  0  0  0  0  0  0
    3.4030   -5.0950    0.0000 C   0  0  2  0  0  0  0  0  0  0  0  0
    5.1350   -5.0950    0.0000 C   0  0  1  0  0  0  0  0  0  0  0  0
    4.2690   -5.5950    0.0000 C   0  0  0  0  0  0  0  0  0  0  0  0
    6.0010   -0.5950    0.0000 C   0  0  0  0  0  0  0  0  0  0  0  0
    6.8671   -0.0950    0.0000 C   0  0  3  0  0  0  0  0  0  0  0  0
    7.7331   -0.5950    0.0000 C   0  0  0  0  0  0  0  0  0  0  0  0
    8.5991    3.9050    0.0000 C   0  0  0  0  0  0  0  0  0  0  0  0
    8.5991    2.9050    0.0000 C   0  0  0  0  0  0  0  0  0  0  0  0
    9.4651    4.4050    0.0000 C   0  0  0  0  0  0  0  0  0  0  0  0
    7.7331    2.4050    0.0000 C   0  0  0  0  0  0  0  0  0  0  0  0
   12.0632   -0.0950    0.0000 C   0  0  0  0  0  0  0  0  0  0  0  0
   12.9292   -0.5950    0.0000 C   0  0  0  0  0  0  0  0  0  0  0  0
   11.1972   -0.5950    0.0000 C   0  0  0  0  0  0  0  0  0  0  0  0
    9.4651    5.4050    0.0000 C   0  0  0  0  0  0  0  0  0  0  0  0
    7.7331    1.4050    0.0000 C   0  0  0  0  0  0  0  0  0  0  0  0
   10.3312   -0.0950    0.0000 C   0  0  0  0  0  0  0  0  0  0  0  0
   13.7953   -0.0950    0.0000 C   0  0  0  0  0  0  0  0  0  0  0  0
   10.3312    5.9050    0.0000 C   0  0  0  0  0  0  0  0  0  0  0  0
    9.4651   -0.5950    0.0000 C   0  0  0  0  0  0  0  0  0  0  0  0
   14.6613   -0.5950    0.0000 C   0  0  0  0  0  0  0  0  0  0  0  0
   10.3312    6.9050    0.0000 C   0  0  0  0  0  0  0  0  0  0  0  0
   15.5273   -0.0950    0.0000 C   0  0  0  0  0  0  0  0  0  0  0  0
    4.8059   -3.2850    0.0000 H   0  0  0  0  0  0  0  0  0  0  0  0
    3.4030   -3.4750    0.0000 H   0  0  0  0  0  0  0  0  0  0  0  0
    5.6720   -4.4050    0.0000 H   0  0  0  0  0  0  0  0  0  0  0  0
    3.4030   -5.7150    0.0000 H   0  0  0  0  0  0  0  0  0  0  0  0
    5.1350   -5.7150    0.0000 H   0  0  0  0  0  0  0  0  0  0  0  0
    3.7320   -5.9050    0.0000 H   0  0  0  0  0  0  0  0  0  0  0  0
    2.0000   -3.9050    0.0000 H   0  0  0  0  0  0  0  0  0  0  0  0
    6.5380   -3.9050    0.0000 H   0  0  0  0  0  0  0  0  0  0  0  0
    2.5369   -6.2150    0.0000 H   0  0  0  0  0  0  0  0  0  0  0  0
    6.0010   -6.2150    0.0000 H   0  0  0  0  0  0  0  0  0  0  0  0
    3.7320   -6.9050    0.0000 H   0  0  0  0  0  0  0  0  0  0  0  0
    5.7890   -0.0124    0.0000 H   0  0  0  0  0  0  0  0  0  0  0  0
    5.3905   -0.7027    0.0000 H   0  0  0  0  0  0  0  0  0  0  0  0
    4.0150   -1.2290    0.0000 H   0  0  0  0  0  0  0  0  0  0  0  0
    6.3301    0.2150    0.0000 H   0  0  0  0  0  0  0  0  0  0  0  0
    7.3346   -1.0700    0.0000 H   0  0  0  0  0  0  0  0  0  0  0  0
    8.1316   -1.0700    0.0000 H   0  0  0  0  0  0  0  0  0  0  0  0
    8.3871    4.4876    0.0000 H   0  0  0  0  0  0  0  0  0  0  0  0
    7.9885    3.7973    0.0000 H   0  0  0  0  0  0  0  0  0  0  0  0
    8.8112    2.3224    0.0000 H   0  0  0  0  0  0  0  0  0  0  0  0
    9.2097    3.0127    0.0000 H   0  0  0  0  0  0  0  0  0  0  0  0
    9.6772    3.8224    0.0000 H   0  0  0  0  0  0  0  0  0  0  0  0
   10.0757    4.5127    0.0000 H   0  0  0  0  0  0  0  0  0  0  0  0
    7.5210    2.9876    0.0000 H   0  0  0  0  0  0  0  0  0  0  0  0
    7.1225    2.2973    0.0000 H   0  0  0  0  0  0  0  0  0  0  0  0
   12.4617    0.3799    0.0000 H   0  0  0  0  0  0  0  0  0  0  0  0
   11.6647    0.3799    0.0000 H   0  0  0  0  0  0  0  0  0  0  0  0
   12.5307   -1.0700    0.0000 H   0  0  0  0  0  0  0  0  0  0  0  0
   13.3278   -1.0700    0.0000 H   0  0  0  0  0  0  0  0  0  0  0  0
   10.7987   -1.0700    0.0000 H   0  0  0  0  0  0  0  0  0  0  0  0
   11.5957   -1.0700    0.0000 H   0  0  0  0  0  0  0  0  0  0  0  0
    9.2531    5.9876    0.0000 H   0  0  0  0  0  0  0  0  0  0  0  0
    8.8546    5.2973    0.0000 H   0  0  0  0  0  0  0  0  0  0  0  0
   14.1938    0.3799    0.0000 H   0  0  0  0  0  0  0  0  0  0  0  0
   13.3967    0.3799    0.0000 H   0  0  0  0  0  0  0  0  0  0  0  0
   10.7297    0.3799    0.0000 H   0  0  0  0  0  0  0  0  0  0  0  0
    9.9326    0.3799    0.0000 H   0  0  0  0  0  0  0  0  0  0  0  0
   10.5432    5.3224    0.0000 H   0  0  0  0  0  0  0  0  0  0  0  0
   10.9417    6.0127    0.0000 H   0  0  0  0  0  0  0  0  0  0  0  0
   14.2628   -1.0700    0.0000 H   0  0  0  0  0  0  0  0  0  0  0  0
   15.0598   -1.0700    0.0000 H   0  0  0  0  0  0  0  0  0  0  0  0
   10.9512    6.9050    0.0000 H   0  0  0  0  0  0  0  0  0  0  0  0
   10.3312    7.5250    0.0000 H   0  0  0  0  0  0  0  0  0  0  0  0
    9.7112    6.9050    0.0000 H   0  0  0  0  0  0  0  0  0  0  0  0
   15.8373   -0.6319    0.0000 H   0  0  0  0  0  0  0  0  0  0  0  0
   16.0643    0.2150    0.0000 H   0  0  0  0  0  0  0  0  0  0  0  0
   15.2173    0.4419    0.0000 H   0  0  0  0  0  0  0  0  0  0  0  0
  1  3  1  0  0  0  0
  1 21  1  0  0  0  0
  2  3  2  0  0  0  0
  3  4  1  0  0  0  0
  3 10  1  0  0  0  0
  4 15  1  0  0  0  0
 16  5  1  1  0  0  0
  5 46  1  0  0  0  0
 17  6  1  6  0  0  0
  6 47  1  0  0  0  0
 18  7  1  6  0  0  0
  7 48  1  0  0  0  0
 19  8  1  6  0  0  0
  8 49  1  0  0  0  0
  9 20  1  0  0  0  0
  9 50  1  0  0  0  0
 10 53  1  0  0  0  0
 11 22  1  0  0  0  0
 11 32  1  0  0  0  0
 12 23  1  0  0  0  0
 12 36  1  0  0  0  0
 13 32  2  0  0  0  0
 14 36  2  0  0  0  0
 15 16  1  0  0  0  0
 15 17  1  0  0  0  0
 15 40  1  0  0  0  0
 16 18  1  0  0  0  0
 16 41  1  0  0  0  0
 17 19  1  0  0  0  0
 17 42  1  0  0  0  0
 18 20  1  0  0  0  0
 18 43  1  0  0  0  0
 19 20  1  0  0  0  0
 19 44  1  0  0  0  0
 20 45  1  0  0  0  0
 21 22  1  0  0  0  0
 21 51  1  0  0  0  0
 21 52  1  0  0  0  0
 22 23  1  0  0  0  0
 22 54  1  0  0  0  0
 23 55  1  0  0  0  0
 23 56  1  0  0  0  0
 24 25  1  0  0  0  0
 24 26  1  0  0  0  0
 24 57  1  0  0  0  0
 24 58  1  0  0  0  0
 25 27  1  0  0  0  0
 25 59  1  0  0  0  0
 25 60  1  0  0  0  0
 26 31  1  0  0  0  0
 26 61  1  0  0  0  0
 26 62  1  0  0  0  0
 27 32  1  0  0  0  0
 27 63  1  0  0  0  0
 27 64  1  0  0  0  0
 28 29  1  0  0  0  0
 28 30  1  0  0  0  0
 28 65  1  0  0  0  0
 28 66  1  0  0  0  0
 29 34  1  0  0  0  0
 29 67  1  0  0  0  0
 29 68  1  0  0  0  0
 30 33  1  0  0  0  0
 30 69  1  0  0  0  0
 30 70  1  0  0  0  0
 31 35  1  0  0  0  0
 31 71  1  0  0  0  0
 31 72  1  0  0  0  0
 33 36  1  0  0  0  0
 33 75  1  0  0  0  0
 33 76  1  0  0  0  0
 34 37  1  0  0  0  0
 34 73  1  0  0  0  0
 34 74  1  0  0  0  0
 35 38  1  0  0  0  0
 35 77  1  0  0  0  0
 35 78  1  0  0  0  0
 37 39  1  0  0  0  0
 37 79  1  0  0  0  0
 37 80  1  0  0  0  0
 38 81  1  0  0  0  0
 38 82  1  0  0  0  0
 38 83  1  0  0  0  0
 39 84  1  0  0  0  0
 39 85  1  0  0  0  0
 39 86  1  0  0  0  0
M  END
> <PUBCHEM_COMPOUND_CID>
100952797

> <PUBCHEM_COMPOUND_CANONICALIZED>
1

> <PUBCHEM_CACTVS_COMPLEXITY>
744

> <PUBCHEM_CACTVS_HBOND_ACCEPTOR>
13

> <PUBCHEM_CACTVS_HBOND_DONOR>
6

> <PUBCHEM_CACTVS_ROTATABLE_BOND>
22

> <PUBCHEM_CACTVS_SUBSKEYS>
AAADcfB4PAJgAAAAAAAAAAAAAAAAAAAAAAAwAAAAAAAAAAAAAAAAGgQACCAACBSkwAKCCAAABxAIAACQCAAAAAAAAAAAAAEAAAABEBIAAAACQAAFAAADAAHI6KSAAAAAAAAAAAACAAAQAACAAAAAAAAAAA==

> <PUBCHEM_IUPAC_OPENEYE_NAME>
[3-[hydroxy-[(2R,3S,5R,6R)-2,3,4,5,6-pentahydroxycyclohexoxy]phosphinothioyl]sulfanyl-2-octanoyloxy-propyl] octanoate

> <PUBCHEM_IUPAC_CAS_NAME>
octanoic acid [3-[[hydroxy-[(2R,3S,5R,6R)-2,3,4,5,6-pentahydroxycyclohexyl]oxyphosphinothioyl]thio]-2-(1-oxooctoxy)propyl] ester

> <PUBCHEM_IUPAC_NAME_MARKUP>
[3-[hydroxy-[(2<I>R</I>,3<I>S</I>,5<I>R</I>,6<I>R</I>)-2,3,4,5,6-pentahydroxycyclohexyl]oxyphosphinothioyl]sulfanyl-2-octanoyloxypropyl] octanoate

> <PUBCHEM_IUPAC_NAME>
[3-[hydroxy-[(2R,3S,5R,6R)-2,3,4,5,6-pentahydroxycyclohexyl]oxyphosphinothioyl]sulfanyl-2-octanoyloxypropyl] octanoate

> <PUBCHEM_IUPAC_SYSTEMATIC_NAME>
[2-octanoyloxy-3-[oxidanyl-[(2R,3S,5R,6R)-2,3,4,5,6-pentakis(oxidanyl)cyclohexyl]oxy-phosphinothioyl]sulfanyl-propyl] octanoate

> <PUBCHEM_IUPAC_TRADITIONAL_NAME>
caprylic acid [2-caprylyloxy-3-[[hydroxy-[(2R,3S,5R,6R)-2,3,4,5,6-pentahydroxycyclohexoxy]thiophosphoryl]thio]propyl] ester

> <PUBCHEM_IUPAC_INCHI>
InChI=1S/C25H47O11PS2/c1-3-5-7-9-11-13-18(26)34-15-17(35-19(27)14-12-10-8-6-4-2)16-39-37(33,38)36-25-23(31)21(29)20(28)22(30)24(25)32/h17,20-25,28-32H,3-16H2,1-2H3,(H,33,38)/t17?,20?,21-,22+,23-,24-,25?,37?/m1/s1

> <PUBCHEM_IUPAC_INCHIKEY>
XAFLRHNSQZNLGT-XOILJYMDSA-N

> <PUBCHEM_XLOGP3_AA>
3.7

> <PUBCHEM_EXACT_MASS>
618.22974166

> <PUBCHEM_MOLECULAR_FORMULA>
C25H47O11PS2

> <PUBCHEM_MOLECULAR_WEIGHT>
618.7

> <PUBCHEM_OPENEYE_CAN_SMILES>
CCCCCCCC(=O)OCC(CSP(=S)(O)OC1C(C(C(C(C1O)O)O)O)O)OC(=O)CCCCCCC

> <PUBCHEM_OPENEYE_ISO_SMILES>
CCCCCCCC(=O)OCC(CSP(=S)(O)OC1[C@@H]([C@H](C([C@H]([C@H]1O)O)O)O)O)OC(=O)CCCCCCC

> <PUBCHEM_CACTVS_TPSA>
241

> <PUBCHEM_MONOISOTOPIC_WEIGHT>
618.22974166

> <PUBCHEM_TOTAL_CHARGE>
0

> <PUBCHEM_HEAVY_ATOM_COUNT>
39

> <PUBCHEM_ATOM_DEF_STEREO_COUNT>
4

> <PUBCHEM_ATOM_UDEF_STEREO_COUNT>
1

> <PUBCHEM_BOND_DEF_STEREO_COUNT>
0

> <PUBCHEM_BOND_UDEF_STEREO_COUNT>
0

> <PUBCHEM_ISOTOPIC_ATOM_COUNT>
0

> <PUBCHEM_COMPONENT_COUNT>
1

> <PUBCHEM_CACTVS_TAUTO_COUNT>
-1

> <PUBCHEM_COORDINATE_TYPE>
1
5
255

> <PUBCHEM_BONDANNOTATIONS>
22  23  3
16  5  5
17  6  6
18  7  6
19  8  6

$$$$
