 
  -OEChem-10192104222D

 85 86  0     1  0  0  0  0  0999 V2000
   12.5459    2.3919    0.0000 S   0  0  0  0  0  0  0  0  0  0  0  0
    4.9791   -3.0694    0.0000 S   0  0  0  0  0  0  0  0  0  0  0  0
    5.7167    0.1029    0.0000 S   0  0  0  0  0  0  0  0  0  0  0  0
    8.1437   -1.6604    0.0000 P   0  0  0  0  0  0  0  0  0  0  0  0
   10.0048    0.8041    0.0000 O   0  0  0  0  0  0  0  0  0  0  0  0
   12.5739    0.4951    0.0000 O   0  0  0  0  0  0  0  0  0  0  0  0
   11.9016   -0.9559    0.0000 O   0  0  0  0  0  0  0  0  0  0  0  0
    8.7315   -0.8514    0.0000 O   0  0  0  0  0  0  0  0  0  0  0  0
    7.5559   -2.4694    0.0000 O   0  0  0  0  0  0  0  0  0  0  0  0
    7.3347   -1.0726    0.0000 O   0  0  0  0  0  0  0  0  0  0  0  0
    8.9527   -2.2482    0.0000 O   0  0  0  0  0  0  0  0  0  0  0  0
   10.8138    5.3919    0.0000 O   0  0  0  0  0  0  0  0  0  0  0  0
    4.7981   -4.7920    0.0000 O   0  0  0  0  0  0  0  0  0  0  0  0
    5.0122    1.6852    0.0000 O   0  0  0  0  0  0  0  0  0  0  0  0
   10.8138    2.3919    0.0000 N   0  0  0  0  0  0  0  0  0  0  0  0
   11.6798    3.8919    0.0000 N   0  0  0  0  0  0  0  0  0  0  0  0
   11.6228    0.8041    0.0000 C   0  0  3  0  0  0  0  0  0  0  0  0
   11.3138   -0.1469    0.0000 C   0  0  2  0  0  0  0  0  0  0  0  0
   10.8138    1.3919    0.0000 C   0  0  1  0  0  0  0  0  0  0  0  0
   10.3138   -0.1469    0.0000 C   0  0  1  0  0  0  0  0  0  0  0  0
   12.2106    1.6132    0.0000 C   0  0  0  0  0  0  0  0  0  0  0  0
    9.7260   -0.9559    0.0000 C   0  0  0  0  0  0  0  0  0  0  0  0
   11.6798    2.8919    0.0000 C   0  0  0  0  0  0  0  0  0  0  0  0
    9.9478    2.8919    0.0000 C   0  0  0  0  0  0  0  0  0  0  0  0
    9.9478    3.8919    0.0000 C   0  0  0  0  0  0  0  0  0  0  0  0
   10.8138    4.3919    0.0000 C   0  0  0  0  0  0  0  0  0  0  0  0
    2.8090   -4.5829    0.0000 C   0  0  0  0  0  0  0  0  0  0  0  0
    3.1851    0.8718    0.0000 C   0  0  0  0  0  0  0  0  0  0  0  0
    6.5614   -2.3649    0.0000 C   0  0  0  0  0  0  0  0  0  0  0  0
    7.4392   -0.0781    0.0000 C   0  0  0  0  0  0  0  0  0  0  0  0
    3.3968   -3.7739    0.0000 C   0  0  0  0  0  0  0  0  0  0  0  0
    3.9941    0.2840    0.0000 C   0  0  0  0  0  0  0  0  0  0  0  0
    5.9736   -3.1739    0.0000 C   0  0  0  0  0  0  0  0  0  0  0  0
    6.6302    0.5097    0.0000 C   0  0  0  0  0  0  0  0  0  0  0  0
    2.2212   -5.3919    0.0000 C   0  0  0  0  0  0  0  0  0  0  0  0
    2.0000   -3.9951    0.0000 C   0  0  0  0  0  0  0  0  0  0  0  0
    3.6180   -5.1707    0.0000 C   0  0  0  0  0  0  0  0  0  0  0  0
    2.3761    1.4595    0.0000 C   0  0  0  0  0  0  0  0  0  0  0  0
    2.5973    0.0627    0.0000 C   0  0  0  0  0  0  0  0  0  0  0  0
    3.7729    1.6808    0.0000 C   0  0  0  0  0  0  0  0  0  0  0  0
    4.3913   -3.8784    0.0000 C   0  0  0  0  0  0  0  0  0  0  0  0
    4.9077    0.6907    0.0000 C   0  0  0  0  0  0  0  0  0  0  0  0
   11.0323   -0.6993    0.0000 H   0  0  0  0  0  0  0  0  0  0  0  0
   11.3662    1.6734    0.0000 H   0  0  0  0  0  0  0  0  0  0  0  0
    9.7014   -0.0499    0.0000 H   0  0  0  0  0  0  0  0  0  0  0  0
   12.7122    1.2487    0.0000 H   0  0  0  0  0  0  0  0  0  0  0  0
   12.5750    2.1148    0.0000 H   0  0  0  0  0  0  0  0  0  0  0  0
   11.7090    1.9776    0.0000 H   0  0  0  0  0  0  0  0  0  0  0  0
    9.5551   -1.5519    0.0000 H   0  0  0  0  0  0  0  0  0  0  0  0
   10.2833   -1.2277    0.0000 H   0  0  0  0  0  0  0  0  0  0  0  0
   13.0346    0.9100    0.0000 H   0  0  0  0  0  0  0  0  0  0  0  0
   11.6494   -1.5223    0.0000 H   0  0  0  0  0  0  0  0  0  0  0  0
    9.4109    2.5819    0.0000 H   0  0  0  0  0  0  0  0  0  0  0  0
   12.2168    4.2019    0.0000 H   0  0  0  0  0  0  0  0  0  0  0  0
    9.4109    4.2019    0.0000 H   0  0  0  0  0  0  0  0  0  0  0  0
    6.7323   -1.7689    0.0000 H   0  0  0  0  0  0  0  0  0  0  0  0
    6.0042   -2.0931    0.0000 H   0  0  0  0  0  0  0  0  0  0  0  0
    8.0352   -0.2490    0.0000 H   0  0  0  0  0  0  0  0  0  0  0  0
    7.7110    0.4791    0.0000 H   0  0  0  0  0  0  0  0  0  0  0  0
    3.5677   -3.1779    0.0000 H   0  0  0  0  0  0  0  0  0  0  0  0
    2.8396   -3.5021    0.0000 H   0  0  0  0  0  0  0  0  0  0  0  0
    3.5481   -0.1467    0.0000 H   0  0  0  0  0  0  0  0  0  0  0  0
    4.3408   -0.2300    0.0000 H   0  0  0  0  0  0  0  0  0  0  0  0
    5.8027   -3.7699    0.0000 H   0  0  0  0  0  0  0  0  0  0  0  0
    6.5309   -3.4457    0.0000 H   0  0  0  0  0  0  0  0  0  0  0  0
    7.0762    0.9404    0.0000 H   0  0  0  0  0  0  0  0  0  0  0  0
    6.2835    1.0237    0.0000 H   0  0  0  0  0  0  0  0  0  0  0  0
    1.7196   -5.0275    0.0000 H   0  0  0  0  0  0  0  0  0  0  0  0
    1.8568   -5.8935    0.0000 H   0  0  0  0  0  0  0  0  0  0  0  0
    2.7228   -5.7564    0.0000 H   0  0  0  0  0  0  0  0  0  0  0  0
    2.3644   -3.4935    0.0000 H   0  0  0  0  0  0  0  0  0  0  0  0
    1.4984   -3.6307    0.0000 H   0  0  0  0  0  0  0  0  0  0  0  0
    1.6356   -4.4967    0.0000 H   0  0  0  0  0  0  0  0  0  0  0  0
    3.2536   -5.6723    0.0000 H   0  0  0  0  0  0  0  0  0  0  0  0
    4.1196   -5.5351    0.0000 H   0  0  0  0  0  0  0  0  0  0  0  0
    3.9825   -4.6691    0.0000 H   0  0  0  0  0  0  0  0  0  0  0  0
    2.7405    1.9611    0.0000 H   0  0  0  0  0  0  0  0  0  0  0  0
    1.8745    1.8240    0.0000 H   0  0  0  0  0  0  0  0  0  0  0  0
    2.0116    0.9580    0.0000 H   0  0  0  0  0  0  0  0  0  0  0  0
    2.0957    0.4272    0.0000 H   0  0  0  0  0  0  0  0  0  0  0  0
    2.2329   -0.4388    0.0000 H   0  0  0  0  0  0  0  0  0  0  0  0
    3.0989   -0.3017    0.0000 H   0  0  0  0  0  0  0  0  0  0  0  0
    4.2745    1.3164    0.0000 H   0  0  0  0  0  0  0  0  0  0  0  0
    4.1373    2.1824    0.0000 H   0  0  0  0  0  0  0  0  0  0  0  0
    3.2713    2.0452    0.0000 H   0  0  0  0  0  0  0  0  0  0  0  0
  1 23  2  0  0  0  0
  2 33  1  0  0  0  0
  2 41  1  0  0  0  0
  3 34  1  0  0  0  0
  3 42  1  0  0  0  0
  4  8  1  0  0  0  0
  4  9  1  0  0  0  0
  4 10  1  0  0  0  0
  4 11  2  0  0  0  0
  5 19  1  0  0  0  0
  5 20  1  0  0  0  0
  6 17  1  0  0  0  0
  6 51  1  0  0  0  0
 18  7  1  1  0  0  0
  7 52  1  0  0  0  0
  8 22  1  0  0  0  0
  9 29  1  0  0  0  0
 10 30  1  0  0  0  0
 12 26  2  0  0  0  0
 13 41  2  0  0  0  0
 14 42  2  0  0  0  0
 19 15  1  1  0  0  0
 15 23  1  0  0  0  0
 15 24  1  0  0  0  0
 16 23  1  0  0  0  0
 16 26  1  0  0  0  0
 16 54  1  0  0  0  0
 17 18  1  0  0  0  0
 17 19  1  0  0  0  0
 17 21  1  0  0  0  0
 18 20  1  0  0  0  0
 18 43  1  0  0  0  0
 19 44  1  0  0  0  0
 20 22  1  1  0  0  0
 20 45  1  0  0  0  0
 21 46  1  0  0  0  0
 21 47  1  0  0  0  0
 21 48  1  0  0  0  0
 22 49  1  0  0  0  0
 22 50  1  0  0  0  0
 24 25  2  0  0  0  0
 24 53  1  0  0  0  0
 25 26  1  0  0  0  0
 25 55  1  0  0  0  0
 27 31  1  0  0  0  0
 27 35  1  0  0  0  0
 27 36  1  0  0  0  0
 27 37  1  0  0  0  0
 28 32  1  0  0  0  0
 28 38  1  0  0  0  0
 28 39  1  0  0  0  0
 28 40  1  0  0  0  0
 29 33  1  0  0  0  0
 29 56  1  0  0  0  0
 29 57  1  0  0  0  0
 30 34  1  0  0  0  0
 30 58  1  0  0  0  0
 30 59  1  0  0  0  0
 31 41  1  0  0  0  0
 31 60  1  0  0  0  0
 31 61  1  0  0  0  0
 32 42  1  0  0  0  0
 32 62  1  0  0  0  0
 32 63  1  0  0  0  0
 33 64  1  0  0  0  0
 33 65  1  0  0  0  0
 34 66  1  0  0  0  0
 34 67  1  0  0  0  0
 35 68  1  0  0  0  0
 35 69  1  0  0  0  0
 35 70  1  0  0  0  0
 36 71  1  0  0  0  0
 36 72  1  0  0  0  0
 36 73  1  0  0  0  0
 37 74  1  0  0  0  0
 37 75  1  0  0  0  0
 37 76  1  0  0  0  0
 38 77  1  0  0  0  0
 38 78  1  0  0  0  0
 38 79  1  0  0  0  0
 39 80  1  0  0  0  0
 39 81  1  0  0  0  0
 39 82  1  0  0  0  0
 40 83  1  0  0  0  0
 40 84  1  0  0  0  0
 40 85  1  0  0  0  0
M  END
> <PUBCHEM_COMPOUND_CID>
122449895

> <PUBCHEM_COMPOUND_CANONICALIZED>
1

> <PUBCHEM_CACTVS_COMPLEXITY>
1040

> <PUBCHEM_CACTVS_HBOND_ACCEPTOR>
13

> <PUBCHEM_CACTVS_HBOND_DONOR>
3

> <PUBCHEM_CACTVS_ROTATABLE_BOND>
18

> <PUBCHEM_CACTVS_SUBSKEYS>
AAADcfB7PAJgAAAAAAAAAAAAAAAAASAAAAAgAAAAAAAAAAAAAAAAHgQQCCAADlTlwAaDAAPABxiMQCFWUICAAAAAAhkIAAEIAECDEBIggAAOQAAPEQIzAMDwMAINAAAAAAAAAAAAAAAAAAAAAAAAAAAAAA==

> <PUBCHEM_IUPAC_OPENEYE_NAME>
S-[2-[[(2R,3S,5R)-3,4-dihydroxy-4-methyl-5-(4-oxo-2-thioxo-pyrimidin-1-yl)tetrahydrofuran-2-yl]methoxy-[2-(3,3-dimethylbutanoylsulfanyl)ethoxy]phosphoryl]oxyethyl] 3,3-dimethylbutanethioate

> <PUBCHEM_IUPAC_CAS_NAME>
3,3-dimethylbutanethioic acid S-[2-[[(2R,3S,5R)-3,4-dihydroxy-4-methyl-5-(4-oxo-2-sulfanylidene-1-pyrimidinyl)-2-oxolanyl]methoxy-[2-[(3,3-dimethyl-1-oxobutyl)thio]ethoxy]phosphoryl]oxyethyl] ester

> <PUBCHEM_IUPAC_NAME_MARKUP>
<I>S</I>-[2-[[(2<I>R</I>,3<I>S</I>,5<I>R</I>)-3,4-dihydroxy-4-methyl-5-(4-oxo-2-sulfanylidenepyrimidin-1-yl)oxolan-2-yl]methoxy-[2-(3,3-dimethylbutanoylsulfanyl)ethoxy]phosphoryl]oxyethyl] 3,3-dimethylbutanethioate

> <PUBCHEM_IUPAC_NAME>
S-[2-[[(2R,3S,5R)-3,4-dihydroxy-4-methyl-5-(4-oxo-2-sulfanylidenepyrimidin-1-yl)oxolan-2-yl]methoxy-[2-(3,3-dimethylbutanoylsulfanyl)ethoxy]phosphoryl]oxyethyl] 3,3-dimethylbutanethioate

> <PUBCHEM_IUPAC_SYSTEMATIC_NAME>
S-[2-[2-(3,3-dimethylbutanoylsulfanyl)ethoxy-[[(2R,3S,5R)-4-methyl-3,4-bis(oxidanyl)-5-(4-oxidanylidene-2-sulfanylidene-pyrimidin-1-yl)oxolan-2-yl]methoxy]phosphoryl]oxyethyl] 3,3-dimethylbutanethioate

> <PUBCHEM_IUPAC_TRADITIONAL_NAME>
3,3-dimethylbutanethioic acid S-[2-[[(2R,3S,5R)-3,4-dihydroxy-5-(4-keto-2-thioxo-pyrimidin-1-yl)-4-methyl-tetrahydrofuran-2-yl]methoxy-[2-(3,3-dimethylbutanoylthio)ethoxy]phosphoryl]oxyethyl] ester

> <PUBCHEM_IUPAC_INCHI>
InChI=1S/C26H43N2O10PS3/c1-24(2,3)14-19(30)41-12-10-35-39(34,36-11-13-42-20(31)15-25(4,5)6)37-16-17-21(32)26(7,33)22(38-17)28-9-8-18(29)27-23(28)40/h8-9,17,21-22,32-33H,10-16H2,1-7H3,(H,27,29,40)/t17-,21+,22-,26?/m1/s1

> <PUBCHEM_IUPAC_INCHIKEY>
MYPSTMBFMICJQW-YEGWUZBZSA-N

> <PUBCHEM_XLOGP3_AA>
2.1

> <PUBCHEM_EXACT_MASS>
670.18174609

> <PUBCHEM_MOLECULAR_FORMULA>
C26H43N2O10PS3

> <PUBCHEM_MOLECULAR_WEIGHT>
670.8

> <PUBCHEM_OPENEYE_CAN_SMILES>
CC1(C(C(OC1N2C=CC(=O)NC2=S)COP(=O)(OCCSC(=O)CC(C)(C)C)OCCSC(=O)CC(C)(C)C)O)O

> <PUBCHEM_OPENEYE_ISO_SMILES>
CC1([C@H]([C@H](O[C@H]1N2C=CC(=O)NC2=S)COP(=O)(OCCSC(=O)CC(C)(C)C)OCCSC(=O)CC(C)(C)C)O)O

> <PUBCHEM_CACTVS_TPSA>
244

> <PUBCHEM_MONOISOTOPIC_WEIGHT>
670.18174609

> <PUBCHEM_TOTAL_CHARGE>
0

> <PUBCHEM_HEAVY_ATOM_COUNT>
42

> <PUBCHEM_ATOM_DEF_STEREO_COUNT>
3

> <PUBCHEM_ATOM_UDEF_STEREO_COUNT>
1

> <PUBCHEM_BOND_DEF_STEREO_COUNT>
0

> <PUBCHEM_BOND_UDEF_STEREO_COUNT>
0

> <PUBCHEM_ISOTOPIC_ATOM_COUNT>
0

> <PUBCHEM_COMPONENT_COUNT>
1

> <PUBCHEM_CACTVS_TAUTO_COUNT>
-1

> <PUBCHEM_COORDINATE_TYPE>
1
5
255

> <PUBCHEM_BONDANNOTATIONS>
19  15  5
15  23  8
15  24  8
16  23  8
16  26  8
20  22  5
24  25  8
25  26  8
17  6  3
18  7  5

$$$$
