 
  -OEChem-10192104182D

 68 71  0     1  0  0  0  0  0999 V2000
    6.0010   -2.0000    0.0000 O   0  0  0  0  0  0  0  0  0  0  0  0
    6.8671   -3.5000    0.0000 O   0  0  0  0  0  0  0  0  0  0  0  0
    8.9900    0.2553    0.0000 O   0  0  0  0  0  0  0  0  0  0  0  0
   10.2629   -1.5000    0.0000 O   0  0  0  0  0  0  0  0  0  0  0  0
    5.1350   -3.5000    0.0000 O   0  0  0  0  0  0  0  0  0  0  0  0
    6.0010    1.0000    0.0000 O   0  0  0  0  0  0  0  0  0  0  0  0
    6.8671   -5.5000    0.0000 O   0  0  0  0  0  0  0  0  0  0  0  0
    7.7331    1.0000    0.0000 O   0  0  0  0  0  0  0  0  0  0  0  0
    5.1350   -6.5000    0.0000 O   0  0  0  0  0  0  0  0  0  0  0  0
    3.4030   -5.5000    0.0000 O   0  0  0  0  0  0  0  0  0  0  0  0
    2.5369   -4.0000    0.0000 O   0  0  0  0  0  0  0  0  0  0  0  0
    5.1350    6.5000    0.0000 O   0  0  0  0  0  0  0  0  0  0  0  0
    7.7331   -2.0000    0.0000 C   0  0  3  0  0  0  0  0  0  0  0  0
    7.7331   -1.0000    0.0000 C   0  0  3  0  0  0  0  0  0  0  0  0
    8.6793   -2.3047    0.0000 C   0  0  3  0  0  0  0  0  0  0  0  0
    8.6793   -0.6953    0.0000 C   0  0  3  0  0  0  0  0  0  0  0  0
    9.2629   -1.5000    0.0000 C   0  0  3  0  0  0  0  0  0  0  0  0
    6.8671   -2.5000    0.0000 C   0  0  3  0  0  0  0  0  0  0  0  0
    6.8671   -0.5000    0.0000 C   0  0  0  0  0  0  0  0  0  0  0  0
    8.9900   -3.2553    0.0000 C   0  0  0  0  0  0  0  0  0  0  0  0
    6.0010   -1.0000    0.0000 C   0  0  0  0  0  0  0  0  0  0  0  0
    6.0010   -4.0000    0.0000 C   0  0  2  0  0  0  0  0  0  0  0  0
    6.8671    0.5000    0.0000 C   0  0  0  0  0  0  0  0  0  0  0  0
    6.0010   -5.0000    0.0000 C   0  0  1  0  0  0  0  0  0  0  0  0
    5.1350   -5.5000    0.0000 C   0  0  2  0  0  0  0  0  0  0  0  0
    4.2690   -5.0000    0.0000 C   0  0  1  0  0  0  0  0  0  0  0  0
    4.2690   -4.0000    0.0000 C   0  0  1  0  0  0  0  0  0  0  0  0
    3.4030   -3.5000    0.0000 C   0  0  0  0  0  0  0  0  0  0  0  0
    6.0010    2.0000    0.0000 C   0  0  0  0  0  0  0  0  0  0  0  0
    5.1350    2.5000    0.0000 C   0  0  0  0  0  0  0  0  0  0  0  0
    5.1350    3.5000    0.0000 C   0  0  0  0  0  0  0  0  0  0  0  0
    4.2690    4.0000    0.0000 C   0  0  0  0  0  0  0  0  0  0  0  0
    6.0010    4.0000    0.0000 C   0  0  0  0  0  0  0  0  0  0  0  0
    4.2690    5.0000    0.0000 C   0  0  0  0  0  0  0  0  0  0  0  0
    6.0010    5.0000    0.0000 C   0  0  0  0  0  0  0  0  0  0  0  0
    5.1350    5.5000    0.0000 C   0  0  0  0  0  0  0  0  0  0  0  0
    7.7987   -2.6165    0.0000 H   0  0  0  0  0  0  0  0  0  0  0  0
    7.7987   -0.3835    0.0000 H   0  0  0  0  0  0  0  0  0  0  0  0
    8.2418   -2.7441    0.0000 H   0  0  0  0  0  0  0  0  0  0  0  0
    8.2418   -0.2559    0.0000 H   0  0  0  0  0  0  0  0  0  0  0  0
    9.5446   -2.0523    0.0000 H   0  0  0  0  0  0  0  0  0  0  0  0
    7.4040   -2.8100    0.0000 H   0  0  0  0  0  0  0  0  0  0  0  0
    8.4006   -3.4479    0.0000 H   0  0  0  0  0  0  0  0  0  0  0  0
    9.1826   -3.8446    0.0000 H   0  0  0  0  0  0  0  0  0  0  0  0
    9.5793   -3.0626    0.0000 H   0  0  0  0  0  0  0  0  0  0  0  0
    5.4641   -0.6900    0.0000 H   0  0  0  0  0  0  0  0  0  0  0  0
    9.5966    0.3831    0.0000 H   0  0  0  0  0  0  0  0  0  0  0  0
   10.5729   -2.0369    0.0000 H   0  0  0  0  0  0  0  0  0  0  0  0
    6.0010   -3.3800    0.0000 H   0  0  0  0  0  0  0  0  0  0  0  0
    6.0010   -5.6200    0.0000 H   0  0  0  0  0  0  0  0  0  0  0  0
    4.5981   -5.8100    0.0000 H   0  0  0  0  0  0  0  0  0  0  0  0
    4.2690   -5.6200    0.0000 H   0  0  0  0  0  0  0  0  0  0  0  0
    4.2690   -3.3800    0.0000 H   0  0  0  0  0  0  0  0  0  0  0  0
    3.8015   -3.0250    0.0000 H   0  0  0  0  0  0  0  0  0  0  0  0
    3.0044   -3.0250    0.0000 H   0  0  0  0  0  0  0  0  0  0  0  0
    6.8671   -6.1200    0.0000 H   0  0  0  0  0  0  0  0  0  0  0  0
    4.5981   -6.8100    0.0000 H   0  0  0  0  0  0  0  0  0  0  0  0
    3.4030   -6.1200    0.0000 H   0  0  0  0  0  0  0  0  0  0  0  0
    6.6116    1.8923    0.0000 H   0  0  0  0  0  0  0  0  0  0  0  0
    6.2131    2.5826    0.0000 H   0  0  0  0  0  0  0  0  0  0  0  0
    2.0000   -3.6900    0.0000 H   0  0  0  0  0  0  0  0  0  0  0  0
    4.5244    2.6077    0.0000 H   0  0  0  0  0  0  0  0  0  0  0  0
    4.9230    1.9174    0.0000 H   0  0  0  0  0  0  0  0  0  0  0  0
    3.7320    3.6900    0.0000 H   0  0  0  0  0  0  0  0  0  0  0  0
    6.5380    3.6900    0.0000 H   0  0  0  0  0  0  0  0  0  0  0  0
    3.7320    5.3100    0.0000 H   0  0  0  0  0  0  0  0  0  0  0  0
    6.5380    5.3100    0.0000 H   0  0  0  0  0  0  0  0  0  0  0  0
    4.5981    6.8100    0.0000 H   0  0  0  0  0  0  0  0  0  0  0  0
  1 18  1  0  0  0  0
  1 21  1  0  0  0  0
  2 18  1  0  0  0  0
 22  2  1  1  0  0  0
  3 16  1  0  0  0  0
  3 47  1  0  0  0  0
  4 17  1  0  0  0  0
  4 48  1  0  0  0  0
  5 22  1  0  0  0  0
  5 27  1  0  0  0  0
  6 23  1  0  0  0  0
  6 29  1  0  0  0  0
 24  7  1  6  0  0  0
  7 56  1  0  0  0  0
  8 23  2  0  0  0  0
 25  9  1  1  0  0  0
  9 57  1  0  0  0  0
 26 10  1  6  0  0  0
 10 58  1  0  0  0  0
 11 28  1  0  0  0  0
 11 61  1  0  0  0  0
 12 36  1  0  0  0  0
 12 68  1  0  0  0  0
 13 14  1  0  0  0  0
 13 15  1  0  0  0  0
 13 18  1  0  0  0  0
 13 37  1  0  0  0  0
 14 16  1  0  0  0  0
 14 19  1  0  0  0  0
 14 38  1  0  0  0  0
 15 17  1  0  0  0  0
 15 20  1  0  0  0  0
 15 39  1  0  0  0  0
 16 17  1  0  0  0  0
 16 40  1  0  0  0  0
 17 41  1  0  0  0  0
 18 42  1  0  0  0  0
 19 21  2  0  0  0  0
 19 23  1  0  0  0  0
 20 43  1  0  0  0  0
 20 44  1  0  0  0  0
 20 45  1  0  0  0  0
 21 46  1  0  0  0  0
 22 24  1  0  0  0  0
 22 49  1  0  0  0  0
 24 25  1  0  0  0  0
 24 50  1  0  0  0  0
 25 26  1  0  0  0  0
 25 51  1  0  0  0  0
 26 27  1  0  0  0  0
 26 52  1  0  0  0  0
 27 28  1  1  0  0  0
 27 53  1  0  0  0  0
 28 54  1  0  0  0  0
 28 55  1  0  0  0  0
 29 30  1  0  0  0  0
 29 59  1  0  0  0  0
 29 60  1  0  0  0  0
 30 31  1  0  0  0  0
 30 62  1  0  0  0  0
 30 63  1  0  0  0  0
 31 32  2  0  0  0  0
 31 33  1  0  0  0  0
 32 34  1  0  0  0  0
 32 64  1  0  0  0  0
 33 35  2  0  0  0  0
 33 65  1  0  0  0  0
 34 36  2  0  0  0  0
 34 66  1  0  0  0  0
 35 36  1  0  0  0  0
 35 67  1  0  0  0  0
M  END
> <PUBCHEM_COMPOUND_CID>
45360241

> <PUBCHEM_COMPOUND_CANONICALIZED>
1

> <PUBCHEM_CACTVS_COMPLEXITY>
783

> <PUBCHEM_CACTVS_HBOND_ACCEPTOR>
12

> <PUBCHEM_CACTVS_HBOND_DONOR>
7

> <PUBCHEM_CACTVS_ROTATABLE_BOND>
8

> <PUBCHEM_CACTVS_SUBSKEYS>
AAADcfB4PAAAAAAAAAAAAAAAAAAAAYAAAAA0QIAAAAAAAEABAAAAGgAACAAADRSwmAMyDoAABgCIAiDSCAACCAAgIAAIiAEGCMgZNjKCMRKicAAlwBEPuIfK7PzOoAAAAAAAAABAAAAAAAAAAYAADCAAAA==

> <PUBCHEM_IUPAC_OPENEYE_NAME>
2-(4-hydroxyphenyl)ethyl 5,6-dihydroxy-7-methyl-1-[(2S,3R,4S,5S,6R)-3,4,5-trihydroxy-6-(hydroxymethyl)tetrahydropyran-2-yl]oxy-1,4a,5,6,7,7a-hexahydrocyclopenta[c]pyran-4-carboxylate

> <PUBCHEM_IUPAC_CAS_NAME>
5,6-dihydroxy-7-methyl-1-[[(2S,3R,4S,5S,6R)-3,4,5-trihydroxy-6-(hydroxymethyl)-2-oxanyl]oxy]-1,4a,5,6,7,7a-hexahydrocyclopenta[c]pyran-4-carboxylic acid 2-(4-hydroxyphenyl)ethyl ester

> <PUBCHEM_IUPAC_NAME_MARKUP>
2-(4-hydroxyphenyl)ethyl 5,6-dihydroxy-7-methyl-1-[(2<I>S</I>,3<I>R</I>,4<I>S</I>,5<I>S</I>,6<I>R</I>)-3,4,5-trihydroxy-6-(hydroxymethyl)oxan-2-yl]oxy-1,4<I>a</I>,5,6,7,7<I>a</I>-hexahydrocyclopenta[c]pyran-4-carboxylate

> <PUBCHEM_IUPAC_NAME>
2-(4-hydroxyphenyl)ethyl 5,6-dihydroxy-7-methyl-1-[(2S,3R,4S,5S,6R)-3,4,5-trihydroxy-6-(hydroxymethyl)oxan-2-yl]oxy-1,4a,5,6,7,7a-hexahydrocyclopenta[c]pyran-4-carboxylate

> <PUBCHEM_IUPAC_SYSTEMATIC_NAME>
2-(4-hydroxyphenyl)ethyl 1-[(2S,3R,4S,5S,6R)-6-(hydroxymethyl)-3,4,5-tris(oxidanyl)oxan-2-yl]oxy-7-methyl-5,6-bis(oxidanyl)-1,4a,5,6,7,7a-hexahydrocyclopenta[c]pyran-4-carboxylate

> <PUBCHEM_IUPAC_TRADITIONAL_NAME>
5,6-dihydroxy-7-methyl-1-[(2S,3R,4S,5S,6R)-3,4,5-trihydroxy-6-methylol-tetrahydropyran-2-yl]oxy-1,4a,5,6,7,7a-hexahydrocyclopenta[c]pyran-4-carboxylic acid 2-(4-hydroxyphenyl)ethyl ester

> <PUBCHEM_IUPAC_INCHI>
InChI=1S/C24H32O12/c1-10-15-16(19(29)17(10)27)13(22(32)33-7-6-11-2-4-12(26)5-3-11)9-34-23(15)36-24-21(31)20(30)18(28)14(8-25)35-24/h2-5,9-10,14-21,23-31H,6-8H2,1H3/t10?,14-,15?,16?,17?,18-,19?,20+,21-,23?,24+/m1/s1

> <PUBCHEM_IUPAC_INCHIKEY>
JUGKCFLQZJYLHO-AQQJVQHUSA-N

> <PUBCHEM_XLOGP3_AA>
-0.8

> <PUBCHEM_EXACT_MASS>
512.18937645

> <PUBCHEM_MOLECULAR_FORMULA>
C24H32O12

> <PUBCHEM_MOLECULAR_WEIGHT>
512.5

> <PUBCHEM_OPENEYE_CAN_SMILES>
CC1C2C(C(C1O)O)C(=COC2OC3C(C(C(C(O3)CO)O)O)O)C(=O)OCCC4=CC=C(C=C4)O

> <PUBCHEM_OPENEYE_ISO_SMILES>
CC1C2C(C(C1O)O)C(=COC2O[C@H]3[C@@H]([C@H]([C@@H]([C@H](O3)CO)O)O)O)C(=O)OCCC4=CC=C(C=C4)O

> <PUBCHEM_CACTVS_TPSA>
196

> <PUBCHEM_MONOISOTOPIC_WEIGHT>
512.18937645

> <PUBCHEM_TOTAL_CHARGE>
0

> <PUBCHEM_HEAVY_ATOM_COUNT>
36

> <PUBCHEM_ATOM_DEF_STEREO_COUNT>
5

> <PUBCHEM_ATOM_UDEF_STEREO_COUNT>
6

> <PUBCHEM_BOND_DEF_STEREO_COUNT>
0

> <PUBCHEM_BOND_UDEF_STEREO_COUNT>
0

> <PUBCHEM_ISOTOPIC_ATOM_COUNT>
0

> <PUBCHEM_COMPONENT_COUNT>
1

> <PUBCHEM_CACTVS_TAUTO_COUNT>
-1

> <PUBCHEM_COORDINATE_TYPE>
1
5
255

> <PUBCHEM_BONDANNOTATIONS>
26  10  6
13  15  3
14  19  3
15  20  3
18  2  3
22  2  5
27  28  5
16  3  3
31  32  8
31  33  8
32  34  8
33  35  8
34  36  8
35  36  8
17  4  3
24  7  6
25  9  5

$$$$
