 
  -OEChem-10192103572D

 94 97  0     1  0  0  0  0  0999 V2000
    8.0622   -0.4050    0.0000 O   0  0  0  0  0  0  0  0  0  0  0  0
    6.3301   -0.4050    0.0000 O   0  0  0  0  0  0  0  0  0  0  0  0
    9.7942    2.5950    0.0000 O   0  0  0  0  0  0  0  0  0  0  0  0
    6.3301   -3.4050    0.0000 O   0  0  0  0  0  0  0  0  0  0  0  0
    8.0622    2.5950    0.0000 O   0  0  0  0  0  0  0  0  0  0  0  0
    9.7942    5.5950    0.0000 O   0  0  0  0  0  0  0  0  0  0  0  0
    8.0622   -2.4050    0.0000 O   0  0  0  0  0  0  0  0  0  0  0  0
    4.5981   -3.4050    0.0000 O   0  0  0  0  0  0  0  0  0  0  0  0
    4.5981   -2.4050    0.0000 O   0  0  0  0  0  0  0  0  0  0  0  0
    9.7942    0.5950    0.0000 O   0  0  0  0  0  0  0  0  0  0  0  0
    6.3301    0.5950    0.0000 O   0  0  0  0  0  0  0  0  0  0  0  0
   11.5263    3.5950    0.0000 O   0  0  0  0  0  0  0  0  0  0  0  0
    8.0622    3.5950    0.0000 O   0  0  0  0  0  0  0  0  0  0  0  0
    6.3301    2.5950    0.0000 O   0  0  0  0  0  0  0  0  0  0  0  0
   11.5263    5.5950    0.0000 O   0  0  0  0  0  0  0  0  0  0  0  0
    4.5981   -6.4050    0.0000 O   0  0  0  0  0  0  0  0  0  0  0  0
    6.3301   -5.4050    0.0000 O   0  0  0  0  0  0  0  0  0  0  0  0
    3.7320   -0.9050    0.0000 O   0  0  0  0  0  0  0  0  0  0  0  0
    2.8660   -5.4050    0.0000 O   0  0  0  0  0  0  0  0  0  0  0  0
    2.8660   -3.4050    0.0000 O   0  0  0  0  0  0  0  0  0  0  0  0
    8.0622    6.5950    0.0000 O   0  0  0  0  0  0  0  0  0  0  0  0
    4.5981    2.5950    0.0000 O   0  0  0  0  0  0  0  0  0  0  0  0
    2.0000   -1.9050    0.0000 O   0  0  0  0  0  0  0  0  0  0  0  0
    6.3301   -2.4050    0.0000 C   0  0  3  0  0  0  0  0  0  0  0  0
    8.0622    0.5950    0.0000 C   0  0  3  0  0  0  0  0  0  0  0  0
    7.1962   -1.9050    0.0000 C   0  0  3  0  0  0  0  0  0  0  0  0
    7.1962   -0.9050    0.0000 C   0  0  3  0  0  0  0  0  0  0  0  0
    5.4641   -1.9050    0.0000 C   0  0  3  0  0  0  0  0  0  0  0  0
    8.9282    1.0950    0.0000 C   0  0  3  0  0  0  0  0  0  0  0  0
    5.4641   -0.9050    0.0000 C   0  0  3  0  0  0  0  0  0  0  0  0
    9.7942    3.5950    0.0000 C   0  0  3  0  0  0  0  0  0  0  0  0
    8.9282    2.0950    0.0000 C   0  0  3  0  0  0  0  0  0  0  0  0
    7.1962    1.0950    0.0000 C   0  0  3  0  0  0  0  0  0  0  0  0
    8.9282    4.0950    0.0000 C   0  0  3  0  0  0  0  0  0  0  0  0
   10.6603    4.0950    0.0000 C   0  0  3  0  0  0  0  0  0  0  0  0
    7.1962    2.0950    0.0000 C   0  0  3  0  0  0  0  0  0  0  0  0
    5.4641   -3.9050    0.0000 C   0  0  3  0  0  0  0  0  0  0  0  0
    8.9282    5.0950    0.0000 C   0  0  3  0  0  0  0  0  0  0  0  0
    5.4641   -4.9050    0.0000 C   0  0  3  0  0  0  0  0  0  0  0  0
   10.6603    5.0950    0.0000 C   0  0  3  0  0  0  0  0  0  0  0  0
    4.5981   -5.4050    0.0000 C   0  0  3  0  0  0  0  0  0  0  0  0
    4.5981   -0.4050    0.0000 C   0  0  0  0  0  0  0  0  0  0  0  0
    3.7320   -4.9050    0.0000 C   0  0  3  0  0  0  0  0  0  0  0  0
    3.7320   -3.9050    0.0000 C   0  0  3  0  0  0  0  0  0  0  0  0
    8.0622    5.5950    0.0000 C   0  0  0  0  0  0  0  0  0  0  0  0
   12.3923    4.0950    0.0000 C   0  0  0  0  0  0  0  0  0  0  0  0
   11.5263    6.5950    0.0000 C   0  0  0  0  0  0  0  0  0  0  0  0
    3.7320   -6.9050    0.0000 C   0  0  0  0  0  0  0  0  0  0  0  0
    5.4641    2.0950    0.0000 C   0  0  0  0  0  0  0  0  0  0  0  0
    2.8660   -2.4050    0.0000 C   0  0  0  0  0  0  0  0  0  0  0  0
    5.7932   -2.7150    0.0000 H   0  0  0  0  0  0  0  0  0  0  0  0
    7.5252    0.2850    0.0000 H   0  0  0  0  0  0  0  0  0  0  0  0
    7.1962   -2.5250    0.0000 H   0  0  0  0  0  0  0  0  0  0  0  0
    7.7331   -1.2150    0.0000 H   0  0  0  0  0  0  0  0  0  0  0  0
    5.4641   -2.5250    0.0000 H   0  0  0  0  0  0  0  0  0  0  0  0
    8.9282    0.4750    0.0000 H   0  0  0  0  0  0  0  0  0  0  0  0
   10.3312    3.2850    0.0000 H   0  0  0  0  0  0  0  0  0  0  0  0
    5.4641   -0.2850    0.0000 H   0  0  0  0  0  0  0  0  0  0  0  0
    9.4651    1.7850    0.0000 H   0  0  0  0  0  0  0  0  0  0  0  0
    7.7331    1.4050    0.0000 H   0  0  0  0  0  0  0  0  0  0  0  0
    8.9282    3.4750    0.0000 H   0  0  0  0  0  0  0  0  0  0  0  0
   10.6603    3.4750    0.0000 H   0  0  0  0  0  0  0  0  0  0  0  0
    6.6592    1.7850    0.0000 H   0  0  0  0  0  0  0  0  0  0  0  0
    5.4641   -3.2850    0.0000 H   0  0  0  0  0  0  0  0  0  0  0  0
    8.9282    5.7150    0.0000 H   0  0  0  0  0  0  0  0  0  0  0  0
    5.4641   -5.5250    0.0000 H   0  0  0  0  0  0  0  0  0  0  0  0
   11.1972    4.7850    0.0000 H   0  0  0  0  0  0  0  0  0  0  0  0
    4.0611   -5.7150    0.0000 H   0  0  0  0  0  0  0  0  0  0  0  0
    4.9966    0.0699    0.0000 H   0  0  0  0  0  0  0  0  0  0  0  0
    4.1996    0.0699    0.0000 H   0  0  0  0  0  0  0  0  0  0  0  0
    3.7320   -5.5250    0.0000 H   0  0  0  0  0  0  0  0  0  0  0  0
    3.7320   -3.2850    0.0000 H   0  0  0  0  0  0  0  0  0  0  0  0
    8.0622   -3.0250    0.0000 H   0  0  0  0  0  0  0  0  0  0  0  0
    7.4516    5.7027    0.0000 H   0  0  0  0  0  0  0  0  0  0  0  0
    7.8501    5.0124    0.0000 H   0  0  0  0  0  0  0  0  0  0  0  0
    4.0611   -2.0950    0.0000 H   0  0  0  0  0  0  0  0  0  0  0  0
   10.3312    0.9050    0.0000 H   0  0  0  0  0  0  0  0  0  0  0  0
    5.7932    0.9050    0.0000 H   0  0  0  0  0  0  0  0  0  0  0  0
    7.5252    3.9050    0.0000 H   0  0  0  0  0  0  0  0  0  0  0  0
    6.3301   -6.0250    0.0000 H   0  0  0  0  0  0  0  0  0  0  0  0
    3.1951   -0.5950    0.0000 H   0  0  0  0  0  0  0  0  0  0  0  0
    2.3291   -5.0950    0.0000 H   0  0  0  0  0  0  0  0  0  0  0  0
   12.7023    3.5581    0.0000 H   0  0  0  0  0  0  0  0  0  0  0  0
   12.9292    4.4050    0.0000 H   0  0  0  0  0  0  0  0  0  0  0  0
   12.0823    4.6319    0.0000 H   0  0  0  0  0  0  0  0  0  0  0  0
    7.5252    6.9050    0.0000 H   0  0  0  0  0  0  0  0  0  0  0  0
   12.1463    6.5950    0.0000 H   0  0  0  0  0  0  0  0  0  0  0  0
   11.5263    7.2150    0.0000 H   0  0  0  0  0  0  0  0  0  0  0  0
   10.9063    6.5950    0.0000 H   0  0  0  0  0  0  0  0  0  0  0  0
    3.4220   -6.3681    0.0000 H   0  0  0  0  0  0  0  0  0  0  0  0
    3.1951   -7.2150    0.0000 H   0  0  0  0  0  0  0  0  0  0  0  0
    4.0420   -7.4419    0.0000 H   0  0  0  0  0  0  0  0  0  0  0  0
    5.4641    1.4750    0.0000 H   0  0  0  0  0  0  0  0  0  0  0  0
    3.4030   -2.0950    0.0000 H   0  0  0  0  0  0  0  0  0  0  0  0
  1 25  1  0  0  0  0
  1 27  1  0  0  0  0
  2 27  1  0  0  0  0
  2 30  1  0  0  0  0
  3 31  1  0  0  0  0
  3 32  1  0  0  0  0
  4 24  1  0  0  0  0
  4 37  1  0  0  0  0
  5 32  1  0  0  0  0
  5 36  1  0  0  0  0
  6 38  1  0  0  0  0
  6 40  1  0  0  0  0
  7 26  1  0  0  0  0
  7 73  1  0  0  0  0
  8 37  1  0  0  0  0
  8 44  1  0  0  0  0
  9 28  1  0  0  0  0
  9 76  1  0  0  0  0
 10 29  1  0  0  0  0
 10 77  1  0  0  0  0
 11 33  1  0  0  0  0
 11 78  1  0  0  0  0
 12 35  1  0  0  0  0
 12 46  1  0  0  0  0
 13 34  1  0  0  0  0
 13 79  1  0  0  0  0
 14 36  1  0  0  0  0
 14 49  1  0  0  0  0
 15 40  1  0  0  0  0
 15 47  1  0  0  0  0
 16 41  1  0  0  0  0
 16 48  1  0  0  0  0
 17 39  1  0  0  0  0
 17 80  1  0  0  0  0
 18 42  1  0  0  0  0
 18 81  1  0  0  0  0
 19 43  1  0  0  0  0
 19 82  1  0  0  0  0
 20 44  1  0  0  0  0
 20 50  1  0  0  0  0
 21 45  1  0  0  0  0
 21 86  1  0  0  0  0
 22 49  2  0  0  0  0
 23 50  2  0  0  0  0
 24 26  1  0  0  0  0
 24 28  1  0  0  0  0
 24 51  1  0  0  0  0
 25 29  1  0  0  0  0
 25 33  1  0  0  0  0
 25 52  1  0  0  0  0
 26 27  1  0  0  0  0
 26 53  1  0  0  0  0
 27 54  1  0  0  0  0
 28 30  1  0  0  0  0
 28 55  1  0  0  0  0
 29 32  1  0  0  0  0
 29 56  1  0  0  0  0
 30 42  1  0  0  0  0
 30 58  1  0  0  0  0
 31 34  1  0  0  0  0
 31 35  1  0  0  0  0
 31 57  1  0  0  0  0
 32 59  1  0  0  0  0
 33 36  1  0  0  0  0
 33 60  1  0  0  0  0
 34 38  1  0  0  0  0
 34 61  1  0  0  0  0
 35 40  1  0  0  0  0
 35 62  1  0  0  0  0
 36 63  1  0  0  0  0
 37 39  1  0  0  0  0
 37 64  1  0  0  0  0
 38 45  1  0  0  0  0
 38 65  1  0  0  0  0
 39 41  1  0  0  0  0
 39 66  1  0  0  0  0
 40 67  1  0  0  0  0
 41 43  1  0  0  0  0
 41 68  1  0  0  0  0
 42 69  1  0  0  0  0
 42 70  1  0  0  0  0
 43 44  1  0  0  0  0
 43 71  1  0  0  0  0
 44 72  1  0  0  0  0
 45 74  1  0  0  0  0
 45 75  1  0  0  0  0
 46 83  1  0  0  0  0
 46 84  1  0  0  0  0
 46 85  1  0  0  0  0
 47 87  1  0  0  0  0
 47 88  1  0  0  0  0
 47 89  1  0  0  0  0
 48 90  1  0  0  0  0
 48 91  1  0  0  0  0
 48 92  1  0  0  0  0
 49 93  1  0  0  0  0
 50 94  1  0  0  0  0
M  END
> <PUBCHEM_COMPOUND_CID>
126549821

> <PUBCHEM_COMPOUND_CANONICALIZED>
1

> <PUBCHEM_CACTVS_COMPLEXITY>
1060

> <PUBCHEM_CACTVS_HBOND_ACCEPTOR>
23

> <PUBCHEM_CACTVS_HBOND_DONOR>
9

> <PUBCHEM_CACTVS_ROTATABLE_BOND>
15

> <PUBCHEM_CACTVS_SUBSKEYS>
AAADcfB4PgAAAAAAAAAAAAAAAAAAAAAAAAAkSJEgAAAAAAAAAAAAGgAACAAACBSwgAMCCAAABgAIAAAAiAAAAAAAAAAAAAAAAAAREAIAAAAiQAAFAAAHAAHAYAwAAAAAAAAAAAAAAAAAAAAAAAAAAAAAAA==

> <PUBCHEM_IUPAC_OPENEYE_NAME>
[6-[2-[2-formyloxy-3,5-dihydroxy-6-[3-hydroxy-2-(hydroxymethyl)-5,6-dimethoxy-tetrahydropyran-4-yl]oxy-tetrahydropyran-4-yl]oxy-3,5-dihydroxy-6-(hydroxymethyl)tetrahydropyran-4-yl]oxy-3,5-dihydroxy-4-methoxy-tetrahydropyran-2-yl] formate

> <PUBCHEM_IUPAC_CAS_NAME>
formic acid [6-[[2-[[2-formyloxy-3,5-dihydroxy-6-[[3-hydroxy-2-(hydroxymethyl)-5,6-dimethoxy-4-oxanyl]oxy]-4-oxanyl]oxy]-3,5-dihydroxy-6-(hydroxymethyl)-4-oxanyl]oxy]-3,5-dihydroxy-4-methoxy-2-oxanyl] ester

> <PUBCHEM_IUPAC_NAME_MARKUP>
[6-[2-[2-formyloxy-3,5-dihydroxy-6-[3-hydroxy-2-(hydroxymethyl)-5,6-dimethoxyoxan-4-yl]oxyoxan-4-yl]oxy-3,5-dihydroxy-6-(hydroxymethyl)oxan-4-yl]oxy-3,5-dihydroxy-4-methoxyoxan-2-yl] formate

> <PUBCHEM_IUPAC_NAME>
[6-[2-[2-formyloxy-3,5-dihydroxy-6-[3-hydroxy-2-(hydroxymethyl)-5,6-dimethoxyoxan-4-yl]oxyoxan-4-yl]oxy-3,5-dihydroxy-6-(hydroxymethyl)oxan-4-yl]oxy-3,5-dihydroxy-4-methoxyoxan-2-yl] formate

> <PUBCHEM_IUPAC_SYSTEMATIC_NAME>
[6-[2-(hydroxymethyl)-6-[2-[2-(hydroxymethyl)-5,6-dimethoxy-3-oxidanyl-oxan-4-yl]oxy-6-methanoyloxy-3,5-bis(oxidanyl)oxan-4-yl]oxy-3,5-bis(oxidanyl)oxan-4-yl]oxy-4-methoxy-3,5-bis(oxidanyl)oxan-2-yl] methanoate

> <PUBCHEM_IUPAC_TRADITIONAL_NAME>
formic acid [6-[2-[2-formyloxy-3,5-dihydroxy-6-(5-hydroxy-2,3-dimethoxy-6-methylol-tetrahydropyran-4-yl)oxy-tetrahydropyran-4-yl]oxy-3,5-dihydroxy-6-methylol-tetrahydropyran-4-yl]oxy-3,5-dihydroxy-4-methoxy-tetrahydropyran-2-yl] ester

> <PUBCHEM_IUPAC_INCHI>
InChI=1S/C27H44O23/c1-39-17-12(34)22(42-6-30)49-25(13(17)35)46-18-10(32)8(4-28)44-24(15(18)37)47-19-14(36)23(43-7-31)50-26(16(19)38)48-20-11(33)9(5-29)45-27(41-3)21(20)40-2/h6-29,32-38H,4-5H2,1-3H3

> <PUBCHEM_IUPAC_INCHIKEY>
LOQHPVRUHJLVPT-UHFFFAOYSA-N

> <PUBCHEM_XLOGP3_AA>
-5.5

> <PUBCHEM_EXACT_MASS>
736.22733765

> <PUBCHEM_MOLECULAR_FORMULA>
C27H44O23

> <PUBCHEM_MOLECULAR_WEIGHT>
736.6

> <PUBCHEM_OPENEYE_CAN_SMILES>
COC1C(C(OC(C1O)OC2C(C(OC(C2O)OC3C(C(OC(C3O)OC4C(C(OC(C4OC)OC)CO)O)OC=O)O)CO)O)OC=O)O

> <PUBCHEM_OPENEYE_ISO_SMILES>
COC1C(C(OC(C1O)OC2C(C(OC(C2O)OC3C(C(OC(C3O)OC4C(C(OC(C4OC)OC)CO)O)OC=O)O)CO)O)OC=O)O

> <PUBCHEM_CACTVS_TPSA>
327

> <PUBCHEM_MONOISOTOPIC_WEIGHT>
736.22733765

> <PUBCHEM_TOTAL_CHARGE>
0

> <PUBCHEM_HEAVY_ATOM_COUNT>
50

> <PUBCHEM_ATOM_DEF_STEREO_COUNT>
0

> <PUBCHEM_ATOM_UDEF_STEREO_COUNT>
20

> <PUBCHEM_BOND_DEF_STEREO_COUNT>
0

> <PUBCHEM_BOND_UDEF_STEREO_COUNT>
0

> <PUBCHEM_ISOTOPIC_ATOM_COUNT>
0

> <PUBCHEM_COMPONENT_COUNT>
1

> <PUBCHEM_CACTVS_TAUTO_COUNT>
-1

> <PUBCHEM_COORDINATE_TYPE>
1
5
255

> <PUBCHEM_BONDANNOTATIONS>
25  1  3
27  1  3
29  10  3
33  11  3
35  12  3
34  13  3
36  14  3
40  15  3
41  16  3
39  17  3
43  19  3
44  20  3
31  3  3
32  3  3
30  42  3
38  45  3
24  4  3
37  4  3
26  7  3
28  9  3

$$$$
