 
  -OEChem-10192103592D

 41 42  0     1  0  0  0  0  0999 V2000
    4.5981   -0.9050    0.0000 O   0  0  0  0  0  0  0  0  0  0  0  0
    4.5981   -3.9050    0.0000 O   0  0  0  0  0  0  0  0  0  0  0  0
    2.8660   -2.9050    0.0000 O   0  0  0  0  0  0  0  0  0  0  0  0
    6.3301   -2.9050    0.0000 O   0  0  0  0  0  0  0  0  0  0  0  0
    6.3301   -0.9050    0.0000 O   0  0  0  0  0  0  0  0  0  0  0  0
    2.8660    0.0950    0.0000 O   0  0  0  0  0  0  0  0  0  0  0  0
    2.0000   -1.4050    0.0000 O   0  0  0  0  0  0  0  0  0  0  0  0
    5.4641    0.5950    0.0000 O   0  0  0  0  0  0  0  0  0  0  0  0
   10.6603    1.5950    0.0000 O   0  0  0  0  0  0  0  0  0  0  0  0
   10.6603    3.5950    0.0000 O   0  0  0  0  0  0  0  0  0  0  0  0
    4.5981   -2.9050    0.0000 C   0  0  3  0  0  0  0  0  0  0  0  0
    3.7320   -2.4050    0.0000 C   0  0  3  0  0  0  0  0  0  0  0  0
    5.4641   -2.4050    0.0000 C   0  0  3  0  0  0  0  0  0  0  0  0
    3.7320   -1.4050    0.0000 C   0  0  3  0  0  0  0  0  0  0  0  0
    5.4641   -1.4050    0.0000 C   0  0  3  0  0  0  0  0  0  0  0  0
    2.8660   -0.9050    0.0000 C   0  0  0  0  0  0  0  0  0  0  0  0
    6.3301    0.0950    0.0000 C   0  0  0  0  0  0  0  0  0  0  0  0
    7.1962    0.5950    0.0000 C   0  0  0  0  0  0  0  0  0  0  0  0
    7.1962    1.5950    0.0000 C   0  0  0  0  0  0  0  0  0  0  0  0
    8.0622    2.0950    0.0000 C   0  0  0  0  0  0  0  0  0  0  0  0
    8.9282    1.5950    0.0000 C   0  0  0  0  0  0  0  0  0  0  0  0
    8.0622    3.0950    0.0000 C   0  0  0  0  0  0  0  0  0  0  0  0
    9.7942    2.0950    0.0000 C   0  0  0  0  0  0  0  0  0  0  0  0
    8.9282    3.5950    0.0000 C   0  0  0  0  0  0  0  0  0  0  0  0
    9.7942    3.0950    0.0000 C   0  0  0  0  0  0  0  0  0  0  0  0
    4.0611   -3.2150    0.0000 H   0  0  0  0  0  0  0  0  0  0  0  0
    3.1951   -2.0950    0.0000 H   0  0  0  0  0  0  0  0  0  0  0  0
    5.4641   -3.0250    0.0000 H   0  0  0  0  0  0  0  0  0  0  0  0
    3.7320   -0.7850    0.0000 H   0  0  0  0  0  0  0  0  0  0  0  0
    6.0010   -1.7150    0.0000 H   0  0  0  0  0  0  0  0  0  0  0  0
    5.1350   -4.2150    0.0000 H   0  0  0  0  0  0  0  0  0  0  0  0
    2.8660   -3.5250    0.0000 H   0  0  0  0  0  0  0  0  0  0  0  0
    6.8671   -2.5950    0.0000 H   0  0  0  0  0  0  0  0  0  0  0  0
    2.3291    0.4050    0.0000 H   0  0  0  0  0  0  0  0  0  0  0  0
    7.7331    0.2850    0.0000 H   0  0  0  0  0  0  0  0  0  0  0  0
    6.6592    1.9050    0.0000 H   0  0  0  0  0  0  0  0  0  0  0  0
    8.9282    0.9750    0.0000 H   0  0  0  0  0  0  0  0  0  0  0  0
    7.5252    3.4050    0.0000 H   0  0  0  0  0  0  0  0  0  0  0  0
    8.9282    4.2150    0.0000 H   0  0  0  0  0  0  0  0  0  0  0  0
   11.1972    1.9050    0.0000 H   0  0  0  0  0  0  0  0  0  0  0  0
   10.6603    4.2150    0.0000 H   0  0  0  0  0  0  0  0  0  0  0  0
  1 14  1  0  0  0  0
  1 15  1  0  0  0  0
  2 11  1  0  0  0  0
  2 31  1  0  0  0  0
  3 12  1  0  0  0  0
  3 32  1  0  0  0  0
  4 13  1  0  0  0  0
  4 33  1  0  0  0  0
  5 15  1  0  0  0  0
  5 17  1  0  0  0  0
  6 16  1  0  0  0  0
  6 34  1  0  0  0  0
  7 16  2  0  0  0  0
  8 17  2  0  0  0  0
  9 23  1  0  0  0  0
  9 40  1  0  0  0  0
 10 25  1  0  0  0  0
 10 41  1  0  0  0  0
 11 12  1  0  0  0  0
 11 13  1  0  0  0  0
 11 26  1  0  0  0  0
 12 14  1  0  0  0  0
 12 27  1  0  0  0  0
 13 15  1  0  0  0  0
 13 28  1  0  0  0  0
 14 16  1  0  0  0  0
 14 29  1  0  0  0  0
 15 30  1  0  0  0  0
 17 18  1  0  0  0  0
 18 19  2  0  0  0  0
 18 35  1  0  0  0  0
 19 20  1  0  0  0  0
 19 36  1  0  0  0  0
 20 21  2  0  0  0  0
 20 22  1  0  0  0  0
 21 23  1  0  0  0  0
 21 37  1  0  0  0  0
 22 24  2  0  0  0  0
 22 38  1  0  0  0  0
 23 25  2  0  0  0  0
 24 25  1  0  0  0  0
 24 39  1  0  0  0  0
M  END
> <PUBCHEM_COMPOUND_CID>
22482505

> <PUBCHEM_COMPOUND_CANONICALIZED>
1

> <PUBCHEM_CACTVS_COMPLEXITY>
520

> <PUBCHEM_CACTVS_HBOND_ACCEPTOR>
10

> <PUBCHEM_CACTVS_HBOND_DONOR>
6

> <PUBCHEM_CACTVS_ROTATABLE_BOND>
5

> <PUBCHEM_CACTVS_SUBSKEYS>
AAADceBwPAAAAAAAAAAAAAAAAAAAAAAAAAA0QAAAAAAAAAABAAAAGgAACAAADBSwmAMwDoAABgCIAiDSCAICAAAgIAAIiAFGiMgZNjaCMRaicAEl4BEPuYfK7BxOIAABAAAAQABAAAIAAACAAAAAAAAAAA==

> <PUBCHEM_IUPAC_OPENEYE_NAME>
6-[(E)-3-(3,4-dihydroxyphenyl)prop-2-enoyl]oxy-3,4,5-trihydroxy-tetrahydropyran-2-carboxylic acid

> <PUBCHEM_IUPAC_CAS_NAME>
6-[(E)-3-(3,4-dihydroxyphenyl)-1-oxoprop-2-enoxy]-3,4,5-trihydroxy-2-oxanecarboxylic acid

> <PUBCHEM_IUPAC_NAME_MARKUP>
6-[(<I>E</I>)-3-(3,4-dihydroxyphenyl)prop-2-enoyl]oxy-3,4,5-trihydroxyoxane-2-carboxylic acid

> <PUBCHEM_IUPAC_NAME>
6-[(E)-3-(3,4-dihydroxyphenyl)prop-2-enoyl]oxy-3,4,5-trihydroxyoxane-2-carboxylic acid

> <PUBCHEM_IUPAC_SYSTEMATIC_NAME>
6-[(E)-3-[3,4-bis(oxidanyl)phenyl]prop-2-enoyl]oxy-3,4,5-tris(oxidanyl)oxane-2-carboxylic acid

> <PUBCHEM_IUPAC_TRADITIONAL_NAME>
6-[(E)-3-(3,4-dihydroxyphenyl)acryloyl]oxy-3,4,5-trihydroxy-tetrahydropyran-2-carboxylic acid

> <PUBCHEM_IUPAC_INCHI>
InChI=1S/C15H16O10/c16-7-3-1-6(5-8(7)17)2-4-9(18)24-15-12(21)10(19)11(20)13(25-15)14(22)23/h1-5,10-13,15-17,19-21H,(H,22,23)/b4-2+

> <PUBCHEM_IUPAC_INCHIKEY>
VMGJMCCDXJNCOK-DUXPYHPUSA-N

> <PUBCHEM_XLOGP3_AA>
-0.4

> <PUBCHEM_EXACT_MASS>
356.07434670

> <PUBCHEM_MOLECULAR_FORMULA>
C15H16O10

> <PUBCHEM_MOLECULAR_WEIGHT>
356.28

> <PUBCHEM_OPENEYE_CAN_SMILES>
C1=CC(=C(C=C1C=CC(=O)OC2C(C(C(C(O2)C(=O)O)O)O)O)O)O

> <PUBCHEM_OPENEYE_ISO_SMILES>
C1=CC(=C(C=C1/C=C/C(=O)OC2C(C(C(C(O2)C(=O)O)O)O)O)O)O

> <PUBCHEM_CACTVS_TPSA>
174

> <PUBCHEM_MONOISOTOPIC_WEIGHT>
356.07434670

> <PUBCHEM_TOTAL_CHARGE>
0

> <PUBCHEM_HEAVY_ATOM_COUNT>
25

> <PUBCHEM_ATOM_DEF_STEREO_COUNT>
0

> <PUBCHEM_ATOM_UDEF_STEREO_COUNT>
5

> <PUBCHEM_BOND_DEF_STEREO_COUNT>
1

> <PUBCHEM_BOND_UDEF_STEREO_COUNT>
0

> <PUBCHEM_ISOTOPIC_ATOM_COUNT>
0

> <PUBCHEM_COMPONENT_COUNT>
1

> <PUBCHEM_CACTVS_TAUTO_COUNT>
-1

> <PUBCHEM_COORDINATE_TYPE>
1
5
255

> <PUBCHEM_BONDANNOTATIONS>
14  16  3
11  2  3
20  21  8
20  22  8
21  23  8
22  24  8
23  25  8
24  25  8
12  3  3
13  4  3
15  5  3

$$$$
