 
  -OEChem-10192103502D

 22 21  0     1  0  0  0  0  0999 V2000
    7.7331    0.5000    0.0000 P   0  3  0  0  0  0  0  0  0  0  0  0
    6.8671   -0.0000    0.0000 O   0  0  0  0  0  0  0  0  0  0  0  0
    4.2690   -1.5000    0.0000 O   0  0  0  0  0  0  0  0  0  0  0  0
    8.5991   -0.0000    0.0000 O   0  0  0  0  0  0  0  0  0  0  0  0
    7.7331    1.5000    0.0000 O   0  0  0  0  0  0  0  0  0  0  0  0
    2.5369    0.5000    0.0000 N   0  0  0  0  0  0  0  0  0  0  0  0
    4.2690    0.5000    0.0000 C   0  0  0  0  0  0  0  0  0  0  0  0
    5.1350    0.0000    0.0000 C   0  0  0  0  0  0  0  0  0  0  0  0
    3.4030    0.0000    0.0000 C   0  0  2  0  0  0  0  0  0  0  0  0
    6.0010    0.5000    0.0000 C   0  0  0  0  0  0  0  0  0  0  0  0
    3.4030   -1.0000    0.0000 C   0  0  0  0  0  0  0  0  0  0  0  0
    4.6675    0.9749    0.0000 H   0  0  0  0  0  0  0  0  0  0  0  0
    3.8705    0.9749    0.0000 H   0  0  0  0  0  0  0  0  0  0  0  0
    4.7365   -0.4749    0.0000 H   0  0  0  0  0  0  0  0  0  0  0  0
    5.5335   -0.4749    0.0000 H   0  0  0  0  0  0  0  0  0  0  0  0
    3.4030    0.6200    0.0000 H   0  0  0  0  0  0  0  0  0  0  0  0
    6.3996    0.9749    0.0000 H   0  0  0  0  0  0  0  0  0  0  0  0
    5.6025    0.9749    0.0000 H   0  0  0  0  0  0  0  0  0  0  0  0
    2.0000    0.1900    0.0000 H   0  0  0  0  0  0  0  0  0  0  0  0
    2.5369    1.1200    0.0000 H   0  0  0  0  0  0  0  0  0  0  0  0
    2.8660   -1.3100    0.0000 H   0  0  0  0  0  0  0  0  0  0  0  0
    9.1360    0.3100    0.0000 H   0  0  0  0  0  0  0  0  0  0  0  0
  1  2  1  0  0  0  0
  1  4  1  0  0  0  0
  1  5  2  0  0  0  0
  2 10  1  0  0  0  0
  3 11  2  0  0  0  0
  4 22  1  0  0  0  0
  9  6  1  6  0  0  0
  6 19  1  0  0  0  0
  6 20  1  0  0  0  0
  7  8  1  0  0  0  0
  7  9  1  0  0  0  0
  7 12  1  0  0  0  0
  7 13  1  0  0  0  0
  8 10  1  0  0  0  0
  8 14  1  0  0  0  0
  8 15  1  0  0  0  0
  9 11  1  0  0  0  0
  9 16  1  0  0  0  0
 10 17  1  0  0  0  0
 10 18  1  0  0  0  0
 11 21  1  0  0  0  0
M  CHG  1   1   1
M  END
> <PUBCHEM_COMPOUND_CID>
88965917

> <PUBCHEM_COMPOUND_CANONICALIZED>
1

> <PUBCHEM_CACTVS_COMPLEXITY>
140

> <PUBCHEM_CACTVS_HBOND_ACCEPTOR>
5

> <PUBCHEM_CACTVS_HBOND_DONOR>
2

> <PUBCHEM_CACTVS_ROTATABLE_BOND>
6

> <PUBCHEM_CACTVS_SUBSKEYS>
AAADccBiOAIAAAAAAAAAAAAAAAAAAAAAAAAAAAAAAAAAAAAAAAAAHgAQCCAACCjhgAYAAABAARAIQAgQgIAAAAAAAAAAAIGAAAAAABIAgAAAAAAEEAAAAACoBAAAAAAAAAAAAAAAAAAAAAAAAAAAAAAAAA==

> <PUBCHEM_IUPAC_OPENEYE_NAME>
[(4R)-4-amino-5-oxo-pentoxy]-hydroxy-oxo-phosphonium

> <PUBCHEM_IUPAC_CAS_NAME>
[(4R)-4-amino-5-oxopentoxy]-hydroxy-oxophosphonium

> <PUBCHEM_IUPAC_NAME_MARKUP>
[(4<I>R</I>)-4-amino-5-oxopentoxy]-hydroxy-oxophosphanium

> <PUBCHEM_IUPAC_NAME>
[(4R)-4-amino-5-oxopentoxy]-hydroxy-oxophosphanium

> <PUBCHEM_IUPAC_SYSTEMATIC_NAME>
[(4R)-4-azanyl-5-oxidanylidene-pentoxy]-oxidanyl-oxidanylidene-phosphanium

> <PUBCHEM_IUPAC_TRADITIONAL_NAME>
[(4R)-4-amino-5-keto-pentoxy]-hydroxy-keto-phosphonium

> <PUBCHEM_IUPAC_INCHI>
InChI=1S/C5H10NO4P/c6-5(4-7)2-1-3-10-11(8)9/h4-5H,1-3,6H2/p+1/t5-/m1/s1

> <PUBCHEM_IUPAC_INCHIKEY>
CKZJRGSHHHGYMJ-RXMQYKEDSA-O

> <PUBCHEM_XLOGP3_AA>
-1

> <PUBCHEM_EXACT_MASS>
180.04256983

> <PUBCHEM_MOLECULAR_FORMULA>
C5H11NO4P+

> <PUBCHEM_MOLECULAR_WEIGHT>
180.12

> <PUBCHEM_OPENEYE_CAN_SMILES>
C(CC(C=O)N)CO[P+](=O)O

> <PUBCHEM_OPENEYE_ISO_SMILES>
C(C[C@H](C=O)N)CO[P+](=O)O

> <PUBCHEM_CACTVS_TPSA>
89.6

> <PUBCHEM_MONOISOTOPIC_WEIGHT>
180.04256983

> <PUBCHEM_TOTAL_CHARGE>
1

> <PUBCHEM_HEAVY_ATOM_COUNT>
11

> <PUBCHEM_ATOM_DEF_STEREO_COUNT>
1

> <PUBCHEM_ATOM_UDEF_STEREO_COUNT>
0

> <PUBCHEM_BOND_DEF_STEREO_COUNT>
0

> <PUBCHEM_BOND_UDEF_STEREO_COUNT>
0

> <PUBCHEM_ISOTOPIC_ATOM_COUNT>
0

> <PUBCHEM_COMPONENT_COUNT>
1

> <PUBCHEM_CACTVS_TAUTO_COUNT>
-1

> <PUBCHEM_COORDINATE_TYPE>
1
5
255

> <PUBCHEM_BONDANNOTATIONS>
9  6  6

$$$$
