 
  -OEChem-10192104092D

 82 85  0     1  0  0  0  0  0999 V2000
   10.4586   -0.7906    0.0000 O   0  0  0  0  0  0  0  0  0  0  0  0
    5.3307    0.2094    0.0000 O   0  0  0  0  0  0  0  0  0  0  0  0
   10.1362    0.6540    0.0000 O   0  0  0  0  0  0  0  0  0  0  0  0
    2.5357   -3.3429    0.0000 O   0  0  0  0  0  0  0  0  0  0  0  0
    8.8285    2.6595    0.0000 O   0  0  0  0  0  0  0  0  0  0  0  0
    2.5519   -1.2513    0.0000 O   0  0  0  0  0  0  0  0  0  0  0  0
   10.1177    3.8162    0.0000 O   0  0  0  0  0  0  0  0  0  0  0  0
   12.7425    3.4844    0.0000 O   0  0  0  0  0  0  0  0  0  0  0  0
    7.9288   -1.2906    0.0000 C   0  0  2  0  0  0  0  0  0  0  0  0
    7.9288   -0.2906    0.0000 C   0  0  1  0  0  0  0  0  0  0  0  0
    7.0628   -1.7906    0.0000 C   0  0  1  0  0  0  0  0  0  0  0  0
    6.1968   -1.2906    0.0000 C   0  0  2  0  0  0  0  0  0  0  0  0
    8.8750    0.0142    0.0000 C   0  0  2  0  0  0  0  0  0  0  0  0
    8.8750   -1.5953    0.0000 C   0  0  0  0  0  0  0  0  0  0  0  0
    9.4586   -0.7906    0.0000 C   0  0  1  0  0  0  0  0  0  0  0  0
    7.0628    0.2094    0.0000 C   0  0  0  0  0  0  0  0  0  0  0  0
    5.2868   -1.7974    0.0000 C   0  0  1  0  0  0  0  0  0  0  0  0
    6.1968   -0.2906    0.0000 C   0  0  0  0  0  0  0  0  0  0  0  0
    7.0789   -2.8321    0.0000 C   0  0  0  0  0  0  0  0  0  0  0  0
    7.9288   -2.2906    0.0000 C   0  0  0  0  0  0  0  0  0  0  0  0
    7.9288    0.7094    0.0000 C   0  0  0  0  0  0  0  0  0  0  0  0
    9.1857    0.9647    0.0000 C   0  0  1  0  0  0  0  0  0  0  0  0
    5.2787   -2.8390    0.0000 C   0  0  0  0  0  0  0  0  0  0  0  0
    5.3307   -0.7906    0.0000 C   0  0  0  0  0  0  0  0  0  0  0  0
    6.1808   -3.3598    0.0000 C   0  0  0  0  0  0  0  0  0  0  0  0
    4.3599   -1.2333    0.0000 C   0  0  0  0  0  0  0  0  0  0  0  0
    4.3433   -3.3887    0.0000 C   0  0  0  0  0  0  0  0  0  0  0  0
    3.4037   -2.8462    0.0000 C   0  0  2  0  0  0  0  0  0  0  0  0
    8.2352    1.2754    0.0000 C   0  0  0  0  0  0  0  0  0  0  0  0
    9.4964    1.9152    0.0000 C   0  0  0  0  0  0  0  0  0  0  0  0
    3.4120   -1.7613    0.0000 C   0  0  0  0  0  0  0  0  0  0  0  0
    3.8467   -4.2567    0.0000 C   0  0  0  0  0  0  0  0  0  0  0  0
    4.8466   -4.2528    0.0000 C   0  0  0  0  0  0  0  0  0  0  0  0
   10.4749    2.1214    0.0000 C   0  0  0  0  0  0  0  0  0  0  0  0
   10.7855    3.0720    0.0000 C   0  0  0  0  0  0  0  0  0  0  0  0
   11.7640    3.2782    0.0000 C   0  0  0  0  0  0  0  0  0  0  0  0
   11.5578    4.2567    0.0000 C   0  0  0  0  0  0  0  0  0  0  0  0
   11.9703    2.2997    0.0000 C   0  0  0  0  0  0  0  0  0  0  0  0
    7.8022   -2.2099    0.0000 H   0  0  0  0  0  0  0  0  0  0  0  0
    9.7148    0.1461    0.0000 H   0  0  0  0  0  0  0  0  0  0  0  0
    8.6240   -2.1622    0.0000 H   0  0  0  0  0  0  0  0  0  0  0  0
    9.4124   -1.9045    0.0000 H   0  0  0  0  0  0  0  0  0  0  0  0
    9.7404   -1.3429    0.0000 H   0  0  0  0  0  0  0  0  0  0  0  0
    7.4613    0.6844    0.0000 H   0  0  0  0  0  0  0  0  0  0  0  0
    6.6643    0.6844    0.0000 H   0  0  0  0  0  0  0  0  0  0  0  0
    6.0179   -2.2309    0.0000 H   0  0  0  0  0  0  0  0  0  0  0  0
    7.2969   -3.4125    0.0000 H   0  0  0  0  0  0  0  0  0  0  0  0
    7.6880   -2.7166    0.0000 H   0  0  0  0  0  0  0  0  0  0  0  0
    7.3088   -2.2906    0.0000 H   0  0  0  0  0  0  0  0  0  0  0  0
    7.9288   -2.9106    0.0000 H   0  0  0  0  0  0  0  0  0  0  0  0
    8.5488   -2.2906    0.0000 H   0  0  0  0  0  0  0  0  0  0  0  0
    8.5488    0.7094    0.0000 H   0  0  0  0  0  0  0  0  0  0  0  0
    7.9288    1.3294    0.0000 H   0  0  0  0  0  0  0  0  0  0  0  0
    7.3088    0.7094    0.0000 H   0  0  0  0  0  0  0  0  0  0  0  0
    5.6407   -0.2536    0.0000 H   0  0  0  0  0  0  0  0  0  0  0  0
    4.7938   -0.4806    0.0000 H   0  0  0  0  0  0  0  0  0  0  0  0
    5.0207   -1.3275    0.0000 H   0  0  0  0  0  0  0  0  0  0  0  0
    6.1832   -3.9798    0.0000 H   0  0  0  0  0  0  0  0  0  0  0  0
    4.7681   -0.7667    0.0000 H   0  0  0  0  0  0  0  0  0  0  0  0
    3.9700   -0.7513    0.0000 H   0  0  0  0  0  0  0  0  0  0  0  0
   10.7687   -1.3275    0.0000 H   0  0  0  0  0  0  0  0  0  0  0  0
    3.4025   -3.4662    0.0000 H   0  0  0  0  0  0  0  0  0  0  0  0
    8.4278    1.8647    0.0000 H   0  0  0  0  0  0  0  0  0  0  0  0
    7.6459    1.4680    0.0000 H   0  0  0  0  0  0  0  0  0  0  0  0
    8.0426    0.6860    0.0000 H   0  0  0  0  0  0  0  0  0  0  0  0
   10.5977    1.0681    0.0000 H   0  0  0  0  0  0  0  0  0  0  0  0
    3.3085   -3.9488    0.0000 H   0  0  0  0  0  0  0  0  0  0  0  0
    3.5387   -4.7948    0.0000 H   0  0  0  0  0  0  0  0  0  0  0  0
    4.3848   -4.5646    0.0000 H   0  0  0  0  0  0  0  0  0  0  0  0
    4.3109   -4.5649    0.0000 H   0  0  0  0  0  0  0  0  0  0  0  0
    5.1587   -4.7886    0.0000 H   0  0  0  0  0  0  0  0  0  0  0  0
    5.3824   -3.9408    0.0000 H   0  0  0  0  0  0  0  0  0  0  0  0
   10.4954    1.5018    0.0000 H   0  0  0  0  0  0  0  0  0  0  0  0
   11.0887    2.0341    0.0000 H   0  0  0  0  0  0  0  0  0  0  0  0
    2.0000   -3.0308    0.0000 H   0  0  0  0  0  0  0  0  0  0  0  0
   12.1645    4.3845    0.0000 H   0  0  0  0  0  0  0  0  0  0  0  0
   11.4300    4.8633    0.0000 H   0  0  0  0  0  0  0  0  0  0  0  0
   10.9511    4.1288    0.0000 H   0  0  0  0  0  0  0  0  0  0  0  0
   11.3636    2.1718    0.0000 H   0  0  0  0  0  0  0  0  0  0  0  0
   12.0981    1.6930    0.0000 H   0  0  0  0  0  0  0  0  0  0  0  0
   12.5769    2.4275    0.0000 H   0  0  0  0  0  0  0  0  0  0  0  0
   12.9352    4.0737    0.0000 H   0  0  0  0  0  0  0  0  0  0  0  0
 15  1  1  6  0  0  0
  1 61  1  0  0  0  0
  2 18  2  0  0  0  0
 22  3  1  1  0  0  0
  3 66  1  0  0  0  0
 28  4  1  1  0  0  0
  4 75  1  0  0  0  0
  5 30  2  0  0  0  0
  6 31  2  0  0  0  0
  7 35  2  0  0  0  0
  8 36  1  0  0  0  0
  8 82  1  0  0  0  0
  9 10  1  0  0  0  0
  9 11  1  0  0  0  0
  9 14  1  0  0  0  0
  9 20  1  6  0  0  0
 10 13  1  0  0  0  0
 10 16  1  0  0  0  0
 10 21  1  1  0  0  0
 11 12  1  0  0  0  0
 11 19  1  0  0  0  0
 11 39  1  1  0  0  0
 12 17  1  0  0  0  0
 12 18  1  0  0  0  0
 12 24  1  1  0  0  0
 13 15  1  0  0  0  0
 13 22  1  0  0  0  0
 13 40  1  6  0  0  0
 14 15  1  0  0  0  0
 14 41  1  0  0  0  0
 14 42  1  0  0  0  0
 15 43  1  0  0  0  0
 16 18  1  0  0  0  0
 16 44  1  0  0  0  0
 16 45  1  0  0  0  0
 17 23  1  0  0  0  0
 17 26  1  0  0  0  0
 17 46  1  6  0  0  0
 19 25  1  0  0  0  0
 19 47  1  0  0  0  0
 19 48  1  0  0  0  0
 20 49  1  0  0  0  0
 20 50  1  0  0  0  0
 20 51  1  0  0  0  0
 21 52  1  0  0  0  0
 21 53  1  0  0  0  0
 21 54  1  0  0  0  0
 22 29  1  0  0  0  0
 22 30  1  0  0  0  0
 23 25  2  0  0  0  0
 23 27  1  0  0  0  0
 24 55  1  0  0  0  0
 24 56  1  0  0  0  0
 24 57  1  0  0  0  0
 25 58  1  0  0  0  0
 26 31  1  0  0  0  0
 26 59  1  0  0  0  0
 26 60  1  0  0  0  0
 27 28  1  0  0  0  0
 27 32  1  0  0  0  0
 27 33  1  0  0  0  0
 28 31  1  0  0  0  0
 28 62  1  0  0  0  0
 29 63  1  0  0  0  0
 29 64  1  0  0  0  0
 29 65  1  0  0  0  0
 30 34  1  0  0  0  0
 32 67  1  0  0  0  0
 32 68  1  0  0  0  0
 32 69  1  0  0  0  0
 33 70  1  0  0  0  0
 33 71  1  0  0  0  0
 33 72  1  0  0  0  0
 34 35  1  0  0  0  0
 34 73  1  0  0  0  0
 34 74  1  0  0  0  0
 35 36  1  0  0  0  0
 36 37  1  0  0  0  0
 36 38  1  0  0  0  0
 37 76  1  0  0  0  0
 37 77  1  0  0  0  0
 37 78  1  0  0  0  0
 38 79  1  0  0  0  0
 38 80  1  0  0  0  0
 38 81  1  0  0  0  0
M  END
> <PUBCHEM_COMPOUND_CID>
123318180

> <PUBCHEM_COMPOUND_CANONICALIZED>
1

> <PUBCHEM_CACTVS_COMPLEXITY>
1140

> <PUBCHEM_CACTVS_HBOND_ACCEPTOR>
8

> <PUBCHEM_CACTVS_HBOND_DONOR>
4

> <PUBCHEM_CACTVS_ROTATABLE_BOND>
5

> <PUBCHEM_CACTVS_SUBSKEYS>
AAADcfB4PAAAAAAAAAAAAAAAAAAAAYAAAAAwYIAAAAAAAGCAAAAAGgAACAAAD1SggAICAAAAAgCIAqBSAAIAAAAgAAAACAFAAAgAEBIIAQAAQAAFwAAIAAOK7vTvgAAAAAAAAADAAAQAADAAAYAADAAAAA==

> <PUBCHEM_IUPAC_OPENEYE_NAME>
(3R,8S,9R,10R,13R,14S,16R,17R)-17-[(1R)-1,5-dihydroxy-1,5-dimethyl-2,4-dioxo-hexyl]-3,16-dihydroxy-4,4,9,13,14-pentamethyl-3,7,8,10,12,15,16,17-octahydro-1H-cyclopenta[a]phenanthrene-2,11-dione

> <PUBCHEM_IUPAC_CAS_NAME>
(3R,8S,9R,10R,13R,14S,16R,17R)-17-[(2R)-2,6-dihydroxy-6-methyl-3,5-dioxoheptan-2-yl]-3,16-dihydroxy-4,4,9,13,14-pentamethyl-3,7,8,10,12,15,16,17-octahydro-1H-cyclopenta[a]phenanthrene-2,11-dione

> <PUBCHEM_IUPAC_NAME_MARKUP>
(3<I>R</I>,8<I>S</I>,9<I>R</I>,10<I>R</I>,13<I>R</I>,14<I>S</I>,16<I>R</I>,17<I>R</I>)-17-[(2<I>R</I>)-2,6-dihydroxy-6-methyl-3,5-dioxoheptan-2-yl]-3,16-dihydroxy-4,4,9,13,14-pentamethyl-3,7,8,10,12,15,16,17-octahydro-1<I>H</I>-cyclopenta[a]phenanthrene-2,11-dione

> <PUBCHEM_IUPAC_NAME>
(3R,8S,9R,10R,13R,14S,16R,17R)-17-[(2R)-2,6-dihydroxy-6-methyl-3,5-dioxoheptan-2-yl]-3,16-dihydroxy-4,4,9,13,14-pentamethyl-3,7,8,10,12,15,16,17-octahydro-1H-cyclopenta[a]phenanthrene-2,11-dione

> <PUBCHEM_IUPAC_SYSTEMATIC_NAME>
(3R,8S,9R,10R,13R,14S,16R,17R)-4,4,9,13,14-pentamethyl-17-[(2R)-6-methyl-2,6-bis(oxidanyl)-3,5-bis(oxidanylidene)heptan-2-yl]-3,16-bis(oxidanyl)-3,7,8,10,12,15,16,17-octahydro-1H-cyclopenta[a]phenanthrene-2,11-dione

> <PUBCHEM_IUPAC_TRADITIONAL_NAME>
(3R,8S,9R,10R,13R,14S,16R,17R)-17-[(1R)-1,5-dihydroxy-2,4-diketo-1,5-dimethyl-hexyl]-3,16-dihydroxy-4,4,9,13,14-pentamethyl-3,7,8,10,12,15,16,17-octahydro-1H-cyclopenta[a]phenanthrene-2,11-quinone

> <PUBCHEM_IUPAC_INCHI>
InChI=1S/C30H44O8/c1-25(2)15-9-10-19-27(5)13-18(32)23(30(8,38)21(34)12-20(33)26(3,4)37)28(27,6)14-22(35)29(19,7)16(15)11-17(31)24(25)36/h9,16,18-19,23-24,32,36-38H,10-14H2,1-8H3/t16-,18-,19+,23+,24+,27+,28-,29+,30+/m1/s1

> <PUBCHEM_IUPAC_INCHIKEY>
CKLKZEGQXUNFJU-PKMVJNHISA-N

> <PUBCHEM_XLOGP3_AA>
1.6

> <PUBCHEM_EXACT_MASS>
532.30361836

> <PUBCHEM_MOLECULAR_FORMULA>
C30H44O8

> <PUBCHEM_MOLECULAR_WEIGHT>
532.7

> <PUBCHEM_OPENEYE_CAN_SMILES>
CC1(C(C(=O)CC2C1=CCC3C2(C(=O)CC4(C3(CC(C4C(C)(C(=O)CC(=O)C(C)(C)O)O)O)C)C)C)O)C

> <PUBCHEM_OPENEYE_ISO_SMILES>
C[C@@]12C[C@H]([C@@H]([C@]1(CC(=O)[C@@]3([C@H]2CC=C4[C@H]3CC(=O)[C@@H](C4(C)C)O)C)C)[C@](C)(C(=O)CC(=O)C(C)(C)O)O)O

> <PUBCHEM_CACTVS_TPSA>
149

> <PUBCHEM_MONOISOTOPIC_WEIGHT>
532.30361836

> <PUBCHEM_TOTAL_CHARGE>
0

> <PUBCHEM_HEAVY_ATOM_COUNT>
38

> <PUBCHEM_ATOM_DEF_STEREO_COUNT>
9

> <PUBCHEM_ATOM_UDEF_STEREO_COUNT>
0

> <PUBCHEM_BOND_DEF_STEREO_COUNT>
0

> <PUBCHEM_BOND_UDEF_STEREO_COUNT>
0

> <PUBCHEM_ISOTOPIC_ATOM_COUNT>
0

> <PUBCHEM_COMPONENT_COUNT>
1

> <PUBCHEM_CACTVS_TAUTO_COUNT>
-1

> <PUBCHEM_COORDINATE_TYPE>
1
5
255

> <PUBCHEM_BONDANNOTATIONS>
15  1  6
10  21  5
11  39  5
12  24  5
13  40  6
17  46  6
22  3  5
28  4  5
9  20  6

$$$$
