 
  -OEChem-10192104322D

 44 46  0     1  0  0  0  0  0999 V2000
    6.8779    0.6415    0.0000 O   0  0  0  0  0  0  0  0  0  0  0  0
    6.8779    1.6415    0.0000 O   0  0  0  0  0  0  0  0  0  0  0  0
    2.5894   -0.8311    0.0000 O   0  0  0  0  0  0  0  0  0  0  0  0
    3.7798   -1.7245    0.0000 O   0  0  0  0  0  0  0  0  0  0  0  0
    8.0214   -1.5926    0.0000 O   0  0  0  0  0  0  0  0  0  0  0  0
    5.1459   -0.3585    0.0000 C   0  0  1  0  0  0  0  0  0  0  0  0
    6.0119    0.1415    0.0000 C   0  0  1  0  0  0  0  0  0  0  0  0
    4.2798    0.1415    0.0000 C   0  0  2  0  0  0  0  0  0  0  0  0
    6.5196   -0.7296    0.0000 C   0  0  2  0  0  0  0  0  0  0  0  0
    5.6464   -1.2338    0.0000 C   0  0  0  0  0  0  0  0  0  0  0  0
    4.2798    1.1415    0.0000 C   0  0  2  0  0  0  0  0  0  0  0  0
    6.0119    1.1415    0.0000 C   0  0  2  0  0  0  0  0  0  0  0  0
    5.1459    1.6415    0.0000 C   0  0  0  0  0  0  0  0  0  0  0  0
    3.3336   -0.1633    0.0000 C   0  0  1  0  0  0  0  0  0  0  0  0
    4.2798   -0.8585    0.0000 C   0  0  0  0  0  0  0  0  0  0  0  0
    7.0214   -1.5946    0.0000 C   0  0  0  0  0  0  0  0  0  0  0  0
    3.3336    1.4462    0.0000 C   0  0  0  0  0  0  0  0  0  0  0  0
    7.5041   -0.5540    0.0000 C   0  0  0  0  0  0  0  0  0  0  0  0
    4.2798    2.1415    0.0000 C   0  0  0  0  0  0  0  0  0  0  0  0
    2.7500    0.6415    0.0000 C   0  0  0  0  0  0  0  0  0  0  0  0
    4.5436   -0.9583    0.0000 H   0  0  0  0  0  0  0  0  0  0  0  0
    5.1086   -1.5423    0.0000 H   0  0  0  0  0  0  0  0  0  0  0  0
    5.9557   -1.7712    0.0000 H   0  0  0  0  0  0  0  0  0  0  0  0
    6.0119    1.7615    0.0000 H   0  0  0  0  0  0  0  0  0  0  0  0
    5.5444    2.1164    0.0000 H   0  0  0  0  0  0  0  0  0  0  0  0
    4.7473    2.1164    0.0000 H   0  0  0  0  0  0  0  0  0  0  0  0
    3.6425   -0.7008    0.0000 H   0  0  0  0  0  0  0  0  0  0  0  0
    4.6784   -1.3335    0.0000 H   0  0  0  0  0  0  0  0  0  0  0  0
    3.6810   -0.6980    0.0000 H   0  0  0  0  0  0  0  0  0  0  0  0
    6.4392   -1.8079    0.0000 H   0  0  0  0  0  0  0  0  0  0  0  0
    7.1303   -2.2050    0.0000 H   0  0  0  0  0  0  0  0  0  0  0  0
    3.1410    2.0355    0.0000 H   0  0  0  0  0  0  0  0  0  0  0  0
    7.6130   -1.1643    0.0000 H   0  0  0  0  0  0  0  0  0  0  0  0
    8.1144   -0.4451    0.0000 H   0  0  0  0  0  0  0  0  0  0  0  0
    7.3952    0.0564    0.0000 H   0  0  0  0  0  0  0  0  0  0  0  0
    4.8998    2.1415    0.0000 H   0  0  0  0  0  0  0  0  0  0  0  0
    4.2798    2.7615    0.0000 H   0  0  0  0  0  0  0  0  0  0  0  0
    3.6598    2.1415    0.0000 H   0  0  0  0  0  0  0  0  0  0  0  0
    2.1300    0.6415    0.0000 H   0  0  0  0  0  0  0  0  0  0  0  0
    7.4885    0.5338    0.0000 H   0  0  0  0  0  0  0  0  0  0  0  0
    6.8779    2.2615    0.0000 H   0  0  0  0  0  0  0  0  0  0  0  0
    2.0000   -0.6385    0.0000 H   0  0  0  0  0  0  0  0  0  0  0  0
    4.0899   -2.2615    0.0000 H   0  0  0  0  0  0  0  0  0  0  0  0
    8.3325   -2.1289    0.0000 H   0  0  0  0  0  0  0  0  0  0  0  0
  7  1  1  6  0  0  0
  1 40  1  0  0  0  0
 12  2  1  6  0  0  0
  2 41  1  0  0  0  0
 14  3  1  6  0  0  0
  3 42  1  0  0  0  0
  4 15  1  0  0  0  0
  4 43  1  0  0  0  0
  5 16  1  0  0  0  0
  5 44  1  0  0  0  0
  6  7  1  0  0  0  0
  6  8  1  0  0  0  0
  6 10  1  0  0  0  0
  6 21  1  1  0  0  0
  7  9  1  0  0  0  0
  7 12  1  0  0  0  0
  8 11  1  0  0  0  0
  8 14  1  0  0  0  0
  8 15  1  6  0  0  0
  9 10  1  0  0  0  0
  9 16  1  0  0  0  0
  9 18  1  6  0  0  0
 10 22  1  0  0  0  0
 10 23  1  0  0  0  0
 11 13  1  0  0  0  0
 11 17  1  0  0  0  0
 11 19  1  6  0  0  0
 12 13  1  0  0  0  0
 12 24  1  0  0  0  0
 13 25  1  0  0  0  0
 13 26  1  0  0  0  0
 14 20  1  0  0  0  0
 14 27  1  0  0  0  0
 15 28  1  0  0  0  0
 15 29  1  0  0  0  0
 16 30  1  0  0  0  0
 16 31  1  0  0  0  0
 17 20  2  0  0  0  0
 17 32  1  0  0  0  0
 18 33  1  0  0  0  0
 18 34  1  0  0  0  0
 18 35  1  0  0  0  0
 19 36  1  0  0  0  0
 19 37  1  0  0  0  0
 19 38  1  0  0  0  0
 20 39  1  0  0  0  0
M  END
> <PUBCHEM_COMPOUND_CID>
139588346

> <PUBCHEM_COMPOUND_CANONICALIZED>
1

> <PUBCHEM_CACTVS_COMPLEXITY>
465

> <PUBCHEM_CACTVS_HBOND_ACCEPTOR>
5

> <PUBCHEM_CACTVS_HBOND_DONOR>
5

> <PUBCHEM_CACTVS_ROTATABLE_BOND>
2

> <PUBCHEM_CACTVS_SUBSKEYS>
AAADceBwOAAAAAAAAAAAAAAAAABgAQAAAAAwAAAAAAAYAEAAAAAAGgAACAAAD1SggAICAAAAAgCAACBCAAAAAAAgAAAICAAAAAgBFAIAAQAAUAAFgAAJEAPA4PQPgAAAAAAAAADAAAYAADCAAAAAAAAAAA==

> <PUBCHEM_IUPAC_OPENEYE_NAME>
(2R,2aS,3S,4aR,7R,7aR,7bR)-2,7a-bis(hydroxymethyl)-2,4a-dimethyl-3,4,7,7b-tetrahydro-1H-cyclobuta[g]indene-2a,3,7-triol

> <PUBCHEM_IUPAC_CAS_NAME>
(2R,2aS,3S,4aR,7R,7aR,7bR)-2,7a-bis(hydroxymethyl)-2,4a-dimethyl-3,4,7,7b-tetrahydro-1H-cyclobuta[g]indene-2a,3,7-triol

> <PUBCHEM_IUPAC_NAME_MARKUP>
(2<I>R</I>,2<I>a</I><I>S</I>,3<I>S</I>,4<I>a</I><I>R</I>,7<I>R</I>,7<I>a</I><I>R</I>,7<I>b</I><I>R</I>)-2,7<I>a</I>-bis(hydroxymethyl)-2,4<I>a</I>-dimethyl-3,4,7,7<I>b</I>-tetrahydro-1<I>H</I>-cyclobuta[g]indene-2<I>a</I>,3,7-triol

> <PUBCHEM_IUPAC_NAME>
(2R,2aS,3S,4aR,7R,7aR,7bR)-2,7a-bis(hydroxymethyl)-2,4a-dimethyl-3,4,7,7b-tetrahydro-1H-cyclobuta[g]indene-2a,3,7-triol

> <PUBCHEM_IUPAC_SYSTEMATIC_NAME>
(2R,2aS,3S,4aR,7R,7aR,7bR)-2,7a-bis(hydroxymethyl)-2,4a-dimethyl-3,4,7,7b-tetrahydro-1H-cyclobuta[g]indene-2a,3,7-triol

> <PUBCHEM_IUPAC_TRADITIONAL_NAME>
(2R,2aS,3S,4aR,7R,7aR,7bR)-2,4a-dimethyl-2,7a-dimethylol-3,4,7,7b-tetrahydro-1H-cyclobut[g]indene-2a,3,7-triol

> <PUBCHEM_IUPAC_INCHI>
InChI=1S/C15H24O5/c1-12-4-3-10(18)14(12,8-17)9-5-13(2,7-16)15(9,20)11(19)6-12/h3-4,9-11,16-20H,5-8H2,1-2H3/t9-,10-,11+,12+,13-,14+,15-/m1/s1

> <PUBCHEM_IUPAC_INCHIKEY>
FFTWNBUZGPVTOT-BXPKWHOZSA-N

> <PUBCHEM_XLOGP3_AA>
0.2

> <PUBCHEM_EXACT_MASS>
284.16237386

> <PUBCHEM_MOLECULAR_FORMULA>
C15H24O5

> <PUBCHEM_MOLECULAR_WEIGHT>
284.35

> <PUBCHEM_OPENEYE_CAN_SMILES>
CC12CC(C3(C(C1(C(C=C2)O)CO)CC3(C)CO)O)O

> <PUBCHEM_OPENEYE_ISO_SMILES>
C[C@]12C[C@@H]([C@@]3([C@@H]([C@]1([C@@H](C=C2)O)CO)C[C@]3(C)CO)O)O

> <PUBCHEM_CACTVS_TPSA>
101

> <PUBCHEM_MONOISOTOPIC_WEIGHT>
284.16237386

> <PUBCHEM_TOTAL_CHARGE>
0

> <PUBCHEM_HEAVY_ATOM_COUNT>
20

> <PUBCHEM_ATOM_DEF_STEREO_COUNT>
7

> <PUBCHEM_ATOM_UDEF_STEREO_COUNT>
0

> <PUBCHEM_BOND_DEF_STEREO_COUNT>
0

> <PUBCHEM_BOND_UDEF_STEREO_COUNT>
0

> <PUBCHEM_ISOTOPIC_ATOM_COUNT>
0

> <PUBCHEM_COMPONENT_COUNT>
1

> <PUBCHEM_CACTVS_TAUTO_COUNT>
-1

> <PUBCHEM_COORDINATE_TYPE>
1
5
255

> <PUBCHEM_BONDANNOTATIONS>
7  1  6
11  19  6
12  2  6
14  3  6
6  21  5
8  15  6
9  18  6

$$$$
