 
  -OEChem-10192103422D

 48 51  0     1  0  0  0  0  0999 V2000
    4.6557   -0.2863    0.0000 O   0  0  0  0  0  0  0  0  0  0  0  0
    7.7244   -0.2863    0.0000 O   0  0  0  0  0  0  0  0  0  0  0  0
    2.6691    2.8406    0.0000 O   0  0  0  0  0  0  0  0  0  0  0  0
    6.4264   -4.4807    0.0000 O   0  0  0  0  0  0  0  0  0  0  0  0
    4.0074    4.3269    0.0000 O   0  0  0  0  0  0  0  0  0  0  0  0
    8.3834   -4.8932    0.0000 O   0  0  0  0  0  0  0  0  0  0  0  0
    6.1945    0.2137    0.0000 C   0  0  1  0  0  0  0  0  0  0  0  0
    6.1945   -0.7863    0.0000 C   0  0  1  0  0  0  0  0  0  0  0  0
    5.2435    0.5227    0.0000 C   0  0  1  0  0  0  0  0  0  0  0  0
    7.1407   -1.0911    0.0000 C   0  0  1  0  0  0  0  0  0  0  0  0
    5.2435   -1.0954    0.0000 C   0  0  0  0  0  0  0  0  0  0  0  0
    7.1407    0.5184    0.0000 C   0  0  0  0  0  0  0  0  0  0  0  0
    4.9344    1.4737    0.0000 C   0  0  0  0  0  0  0  0  0  0  0  0
    7.4514   -2.0416    0.0000 C   0  0  0  0  0  0  0  0  0  0  0  0
    3.9563    1.6816    0.0000 C   0  0  0  0  0  0  0  0  0  0  0  0
    5.6036    2.2169    0.0000 C   0  0  0  0  0  0  0  0  0  0  0  0
    6.7836   -2.7859    0.0000 C   0  0  0  0  0  0  0  0  0  0  0  0
    8.4299   -2.2478    0.0000 C   0  0  0  0  0  0  0  0  0  0  0  0
    3.6473    2.6327    0.0000 C   0  0  0  0  0  0  0  0  0  0  0  0
    5.2946    3.1679    0.0000 C   0  0  0  0  0  0  0  0  0  0  0  0
    7.0942   -3.7364    0.0000 C   0  0  0  0  0  0  0  0  0  0  0  0
    8.7406   -3.1983    0.0000 C   0  0  0  0  0  0  0  0  0  0  0  0
    4.3164    3.3758    0.0000 C   0  0  0  0  0  0  0  0  0  0  0  0
    8.0727   -3.9426    0.0000 C   0  0  0  0  0  0  0  0  0  0  0  0
    2.0000    2.0975    0.0000 C   0  0  0  0  0  0  0  0  0  0  0  0
    4.6765    5.0700    0.0000 C   0  0  0  0  0  0  0  0  0  0  0  0
    6.1956    1.0636    0.0000 H   0  0  0  0  0  0  0  0  0  0  0  0
    6.1956   -1.6363    0.0000 H   0  0  0  0  0  0  0  0  0  0  0  0
    4.6311    0.6197    0.0000 H   0  0  0  0  0  0  0  0  0  0  0  0
    7.7532   -1.1873    0.0000 H   0  0  0  0  0  0  0  0  0  0  0  0
    4.7065   -1.4054    0.0000 H   0  0  0  0  0  0  0  0  0  0  0  0
    5.4956   -1.6618    0.0000 H   0  0  0  0  0  0  0  0  0  0  0  0
    7.6781    0.8276    0.0000 H   0  0  0  0  0  0  0  0  0  0  0  0
    6.8897    1.0853    0.0000 H   0  0  0  0  0  0  0  0  0  0  0  0
    3.5414    1.2209    0.0000 H   0  0  0  0  0  0  0  0  0  0  0  0
    6.2100    2.0880    0.0000 H   0  0  0  0  0  0  0  0  0  0  0  0
    6.1769   -2.6580    0.0000 H   0  0  0  0  0  0  0  0  0  0  0  0
    8.8440   -1.7864    0.0000 H   0  0  0  0  0  0  0  0  0  0  0  0
    5.7094    3.6287    0.0000 H   0  0  0  0  0  0  0  0  0  0  0  0
    9.3472   -3.3262    0.0000 H   0  0  0  0  0  0  0  0  0  0  0  0
    6.6190   -5.0700    0.0000 H   0  0  0  0  0  0  0  0  0  0  0  0
    8.9901   -5.0210    0.0000 H   0  0  0  0  0  0  0  0  0  0  0  0
    1.5392    2.5123    0.0000 H   0  0  0  0  0  0  0  0  0  0  0  0
    1.5851    1.6367    0.0000 H   0  0  0  0  0  0  0  0  0  0  0  0
    2.4608    1.6826    0.0000 H   0  0  0  0  0  0  0  0  0  0  0  0
    5.1373    4.6552    0.0000 H   0  0  0  0  0  0  0  0  0  0  0  0
    5.0914    5.5308    0.0000 H   0  0  0  0  0  0  0  0  0  0  0  0
    4.2158    5.4849    0.0000 H   0  0  0  0  0  0  0  0  0  0  0  0
  1  9  1  0  0  0  0
  1 11  1  0  0  0  0
  2 10  1  0  0  0  0
  2 12  1  0  0  0  0
  3 19  1  0  0  0  0
  3 25  1  0  0  0  0
  4 21  1  0  0  0  0
  4 41  1  0  0  0  0
  5 23  1  0  0  0  0
  5 26  1  0  0  0  0
  6 24  1  0  0  0  0
  6 42  1  0  0  0  0
  7  8  1  0  0  0  0
  7  9  1  0  0  0  0
  7 12  1  0  0  0  0
  7 27  1  6  0  0  0
  8 10  1  0  0  0  0
  8 11  1  0  0  0  0
  8 28  1  6  0  0  0
  9 13  1  6  0  0  0
  9 29  1  0  0  0  0
 10 14  1  6  0  0  0
 10 30  1  0  0  0  0
 11 31  1  0  0  0  0
 11 32  1  0  0  0  0
 12 33  1  0  0  0  0
 12 34  1  0  0  0  0
 13 15  2  0  0  0  0
 13 16  1  0  0  0  0
 14 17  2  0  0  0  0
 14 18  1  0  0  0  0
 15 19  1  0  0  0  0
 15 35  1  0  0  0  0
 16 20  2  0  0  0  0
 16 36  1  0  0  0  0
 17 21  1  0  0  0  0
 17 37  1  0  0  0  0
 18 22  2  0  0  0  0
 18 38  1  0  0  0  0
 19 23  2  0  0  0  0
 20 23  1  0  0  0  0
 20 39  1  0  0  0  0
 21 24  2  0  0  0  0
 22 24  1  0  0  0  0
 22 40  1  0  0  0  0
 25 43  1  0  0  0  0
 25 44  1  0  0  0  0
 25 45  1  0  0  0  0
 26 46  1  0  0  0  0
 26 47  1  0  0  0  0
 26 48  1  0  0  0  0
M  END
> <PUBCHEM_COMPOUND_CID>
15489509

> <PUBCHEM_COMPOUND_CANONICALIZED>
1

> <PUBCHEM_CACTVS_COMPLEXITY>
473

> <PUBCHEM_CACTVS_HBOND_ACCEPTOR>
6

> <PUBCHEM_CACTVS_HBOND_DONOR>
2

> <PUBCHEM_CACTVS_ROTATABLE_BOND>
4

> <PUBCHEM_CACTVS_SUBSKEYS>
AAADceB4OAAAAAAAAAAAAAAAAAAAASJAAAAwYAAAAAASAAABQAAAGgAACAAADRSgmAIyBoAABgCAAiBCAAACCAAgIAAIiAAGiIgNJiKGMRqCcCMlwBELuAfA4PwOoAABAAAAQABAAAIAAACAAAAAAAAAAA==

> <PUBCHEM_IUPAC_OPENEYE_NAME>
4-[(3S,3aR,6S,6aR)-6-(3,4-dimethoxyphenyl)-1,3,3a,4,6,6a-hexahydrofuro[3,4-c]furan-3-yl]benzene-1,2-diol

> <PUBCHEM_IUPAC_CAS_NAME>
4-[(3S,3aR,6S,6aR)-6-(3,4-dimethoxyphenyl)-1,3,3a,4,6,6a-hexahydrofuro[3,4-c]furan-3-yl]benzene-1,2-diol

> <PUBCHEM_IUPAC_NAME_MARKUP>
4-[(3<I>S</I>,3<I>a</I><I>R</I>,6<I>S</I>,6<I>a</I><I>R</I>)-6-(3,4-dimethoxyphenyl)-1,3,3<I>a</I>,4,6,6<I>a</I>-hexahydrofuro[3,4-c]furan-3-yl]benzene-1,2-diol

> <PUBCHEM_IUPAC_NAME>
4-[(3S,3aR,6S,6aR)-6-(3,4-dimethoxyphenyl)-1,3,3a,4,6,6a-hexahydrofuro[3,4-c]furan-3-yl]benzene-1,2-diol

> <PUBCHEM_IUPAC_SYSTEMATIC_NAME>
4-[(3S,3aR,6S,6aR)-6-(3,4-dimethoxyphenyl)-1,3,3a,4,6,6a-hexahydrofuro[3,4-c]furan-3-yl]benzene-1,2-diol

> <PUBCHEM_IUPAC_TRADITIONAL_NAME>
4-[(3S,3aR,6S,6aR)-6-(3,4-dimethoxyphenyl)-1,3,3a,4,6,6a-hexahydrofuro[3,4-c]furan-3-yl]pyrocatechol

> <PUBCHEM_IUPAC_INCHI>
InChI=1S/C20H22O6/c1-23-17-6-4-12(8-18(17)24-2)20-14-10-25-19(13(14)9-26-20)11-3-5-15(21)16(22)7-11/h3-8,13-14,19-22H,9-10H2,1-2H3/t13-,14-,19+,20+/m0/s1

> <PUBCHEM_IUPAC_INCHIKEY>
DJGIRFSHDONNME-AFHBHXEDSA-N

> <PUBCHEM_XLOGP3_AA>
2.3

> <PUBCHEM_EXACT_MASS>
358.14163842

> <PUBCHEM_MOLECULAR_FORMULA>
C20H22O6

> <PUBCHEM_MOLECULAR_WEIGHT>
358.4

> <PUBCHEM_OPENEYE_CAN_SMILES>
COC1=C(C=C(C=C1)C2C3COC(C3CO2)C4=CC(=C(C=C4)O)O)OC

> <PUBCHEM_OPENEYE_ISO_SMILES>
COC1=C(C=C(C=C1)[C@@H]2[C@H]3CO[C@@H]([C@H]3CO2)C4=CC(=C(C=C4)O)O)OC

> <PUBCHEM_CACTVS_TPSA>
77.4

> <PUBCHEM_MONOISOTOPIC_WEIGHT>
358.14163842

> <PUBCHEM_TOTAL_CHARGE>
0

> <PUBCHEM_HEAVY_ATOM_COUNT>
26

> <PUBCHEM_ATOM_DEF_STEREO_COUNT>
4

> <PUBCHEM_ATOM_UDEF_STEREO_COUNT>
0

> <PUBCHEM_BOND_DEF_STEREO_COUNT>
0

> <PUBCHEM_BOND_UDEF_STEREO_COUNT>
0

> <PUBCHEM_ISOTOPIC_ATOM_COUNT>
0

> <PUBCHEM_COMPONENT_COUNT>
1

> <PUBCHEM_CACTVS_TAUTO_COUNT>
-1

> <PUBCHEM_COORDINATE_TYPE>
1
5
255

> <PUBCHEM_BONDANNOTATIONS>
10  14  6
13  15  8
13  16  8
14  17  8
14  18  8
15  19  8
16  20  8
17  21  8
18  22  8
19  23  8
20  23  8
21  24  8
22  24  8
7  27  6
8  28  6
9  13  6

$$$$
