 
  -OEChem-10192104112D

 48 48  0     0  0  0  0  0  0999 V2000
    3.4030   -3.5950    0.0000 O   0  0  0  0  0  0  0  0  0  0  0  0
    2.5369   -2.0950    0.0000 O   0  0  0  0  0  0  0  0  0  0  0  0
    7.7331    3.9050    0.0000 O   0  0  0  0  0  0  0  0  0  0  0  0
    6.0010    3.9050    0.0000 O   0  0  0  0  0  0  0  0  0  0  0  0
    2.5369    3.9050    0.0000 O   0  0  0  0  0  0  0  0  0  0  0  0
    4.2690    3.9050    0.0000 O   0  0  0  0  0  0  0  0  0  0  0  0
    5.1350   -1.5950    0.0000 N   0  0  0  0  0  0  0  0  0  0  0  0
    6.8671    1.4050    0.0000 N   0  0  0  0  0  0  0  0  0  0  0  0
    3.4030    1.4050    0.0000 N   0  0  0  0  0  0  0  0  0  0  0  0
    6.0010   -0.0950    0.0000 N   0  0  0  0  0  0  0  0  0  0  0  0
    4.2690   -0.0950    0.0000 N   0  0  0  0  0  0  0  0  0  0  0  0
    5.1350    1.4050    0.0000 N   0  0  0  0  0  0  0  0  0  0  0  0
    4.2690   -2.0950    0.0000 C   0  0  0  0  0  0  0  0  0  0  0  0
    6.8671    2.4050    0.0000 C   0  0  0  0  0  0  0  0  0  0  0  0
    3.4030    2.4050    0.0000 C   0  0  0  0  0  0  0  0  0  0  0  0
    5.1350   -0.5950    0.0000 C   0  0  0  0  0  0  0  0  0  0  0  0
    6.0010    0.9050    0.0000 C   0  0  0  0  0  0  0  0  0  0  0  0
    4.2690    0.9050    0.0000 C   0  0  0  0  0  0  0  0  0  0  0  0
    4.2690   -3.0950    0.0000 C   0  0  0  0  0  0  0  0  0  0  0  0
    3.4030   -1.5950    0.0000 C   0  0  0  0  0  0  0  0  0  0  0  0
    7.7331    2.9050    0.0000 C   0  0  0  0  0  0  0  0  0  0  0  0
    6.0010    2.9050    0.0000 C   0  0  0  0  0  0  0  0  0  0  0  0
    2.5369    2.9050    0.0000 C   0  0  0  0  0  0  0  0  0  0  0  0
    4.2690    2.9050    0.0000 C   0  0  0  0  0  0  0  0  0  0  0  0
    4.2690   -1.4750    0.0000 H   0  0  0  0  0  0  0  0  0  0  0  0
    6.3301    2.0950    0.0000 H   0  0  0  0  0  0  0  0  0  0  0  0
    3.9399    2.0950    0.0000 H   0  0  0  0  0  0  0  0  0  0  0  0
    5.6720   -1.9050    0.0000 H   0  0  0  0  0  0  0  0  0  0  0  0
    7.4040    1.0950    0.0000 H   0  0  0  0  0  0  0  0  0  0  0  0
    2.8660    1.0950    0.0000 H   0  0  0  0  0  0  0  0  0  0  0  0
    4.4810   -3.6776    0.0000 H   0  0  0  0  0  0  0  0  0  0  0  0
    4.8796   -2.9873    0.0000 H   0  0  0  0  0  0  0  0  0  0  0  0
    3.8015   -1.1200    0.0000 H   0  0  0  0  0  0  0  0  0  0  0  0
    3.0044   -1.1200    0.0000 H   0  0  0  0  0  0  0  0  0  0  0  0
    7.9451    2.3224    0.0000 H   0  0  0  0  0  0  0  0  0  0  0  0
    8.3437    3.0127    0.0000 H   0  0  0  0  0  0  0  0  0  0  0  0
    5.3905    3.0127    0.0000 H   0  0  0  0  0  0  0  0  0  0  0  0
    5.7890    2.3224    0.0000 H   0  0  0  0  0  0  0  0  0  0  0  0
    1.9264    3.0127    0.0000 H   0  0  0  0  0  0  0  0  0  0  0  0
    2.3249    2.3224    0.0000 H   0  0  0  0  0  0  0  0  0  0  0  0
    4.4810    2.3224    0.0000 H   0  0  0  0  0  0  0  0  0  0  0  0
    4.8796    3.0127    0.0000 H   0  0  0  0  0  0  0  0  0  0  0  0
    3.4030   -4.2150    0.0000 H   0  0  0  0  0  0  0  0  0  0  0  0
    2.0000   -1.7850    0.0000 H   0  0  0  0  0  0  0  0  0  0  0  0
    8.2700    4.2150    0.0000 H   0  0  0  0  0  0  0  0  0  0  0  0
    6.5380    4.2150    0.0000 H   0  0  0  0  0  0  0  0  0  0  0  0
    2.0000    4.2150    0.0000 H   0  0  0  0  0  0  0  0  0  0  0  0
    3.7320    4.2150    0.0000 H   0  0  0  0  0  0  0  0  0  0  0  0
  1 19  1  0  0  0  0
  1 43  1  0  0  0  0
  2 20  1  0  0  0  0
  2 44  1  0  0  0  0
  3 21  1  0  0  0  0
  3 45  1  0  0  0  0
  4 22  1  0  0  0  0
  4 46  1  0  0  0  0
  5 23  1  0  0  0  0
  5 47  1  0  0  0  0
  6 24  1  0  0  0  0
  6 48  1  0  0  0  0
  7 13  1  0  0  0  0
  7 16  1  0  0  0  0
  7 28  1  0  0  0  0
  8 14  1  0  0  0  0
  8 17  1  0  0  0  0
  8 29  1  0  0  0  0
  9 15  1  0  0  0  0
  9 18  1  0  0  0  0
  9 30  1  0  0  0  0
 10 16  2  0  0  0  0
 10 17  1  0  0  0  0
 11 16  1  0  0  0  0
 11 18  2  0  0  0  0
 12 17  2  0  0  0  0
 12 18  1  0  0  0  0
 13 19  1  0  0  0  0
 13 20  1  0  0  0  0
 13 25  1  0  0  0  0
 14 21  1  0  0  0  0
 14 22  1  0  0  0  0
 14 26  1  0  0  0  0
 15 23  1  0  0  0  0
 15 24  1  0  0  0  0
 15 27  1  0  0  0  0
 19 31  1  0  0  0  0
 19 32  1  0  0  0  0
 20 33  1  0  0  0  0
 20 34  1  0  0  0  0
 21 35  1  0  0  0  0
 21 36  1  0  0  0  0
 22 37  1  0  0  0  0
 22 38  1  0  0  0  0
 23 39  1  0  0  0  0
 23 40  1  0  0  0  0
 24 41  1  0  0  0  0
 24 42  1  0  0  0  0
M  END
> <PUBCHEM_COMPOUND_CID>
90392504

> <PUBCHEM_COMPOUND_CANONICALIZED>
1

> <PUBCHEM_CACTVS_COMPLEXITY>
259

> <PUBCHEM_CACTVS_HBOND_ACCEPTOR>
12

> <PUBCHEM_CACTVS_HBOND_DONOR>
9

> <PUBCHEM_CACTVS_ROTATABLE_BOND>
12

> <PUBCHEM_CACTVS_SUBSKEYS>
AAADceBzuAAAAAAAAAAAAAAAAAAAAAAAAAAsAAAAAAAAAAABgAAAHgAQCAAACCjhgAYBEAbIEgAgAAAAJAAAAAkAAIABAIAIAACCGAAACAAAQAAJEAIQAAAAAAAAAAAAAAAAAAAAAAAAAAAAAAAAAAAAAA==

> <PUBCHEM_IUPAC_OPENEYE_NAME>
2-[[4,6-bis[[2-hydroxy-1-(hydroxymethyl)ethyl]amino]-1,3,5-triazin-2-yl]amino]propane-1,3-diol

> <PUBCHEM_IUPAC_CAS_NAME>
2-[[4,6-bis(1,3-dihydroxypropan-2-ylamino)-1,3,5-triazin-2-yl]amino]propane-1,3-diol

> <PUBCHEM_IUPAC_NAME_MARKUP>
2-[[4,6-bis(1,3-dihydroxypropan-2-ylamino)-1,3,5-triazin-2-yl]amino]propane-1,3-diol

> <PUBCHEM_IUPAC_NAME>
2-[[4,6-bis(1,3-dihydroxypropan-2-ylamino)-1,3,5-triazin-2-yl]amino]propane-1,3-diol

> <PUBCHEM_IUPAC_SYSTEMATIC_NAME>
2-[[4,6-bis[1,3-bis(oxidanyl)propan-2-ylamino]-1,3,5-triazin-2-yl]amino]propane-1,3-diol

> <PUBCHEM_IUPAC_TRADITIONAL_NAME>
2-[[4,6-bis[(2-hydroxy-1-methylol-ethyl)amino]-s-triazin-2-yl]amino]propane-1,3-diol

> <PUBCHEM_IUPAC_INCHI>
InChI=1S/C12H24N6O6/c19-1-7(2-20)13-10-16-11(14-8(3-21)4-22)18-12(17-10)15-9(5-23)6-24/h7-9,19-24H,1-6H2,(H3,13,14,15,16,17,18)

> <PUBCHEM_IUPAC_INCHIKEY>
OTKPHOTXOSNKQJ-UHFFFAOYSA-N

> <PUBCHEM_XLOGP3_AA>
-3

> <PUBCHEM_EXACT_MASS>
348.17573251

> <PUBCHEM_MOLECULAR_FORMULA>
C12H24N6O6

> <PUBCHEM_MOLECULAR_WEIGHT>
348.36

> <PUBCHEM_OPENEYE_CAN_SMILES>
C(C(CO)NC1=NC(=NC(=N1)NC(CO)CO)NC(CO)CO)O

> <PUBCHEM_OPENEYE_ISO_SMILES>
C(C(CO)NC1=NC(=NC(=N1)NC(CO)CO)NC(CO)CO)O

> <PUBCHEM_CACTVS_TPSA>
196

> <PUBCHEM_MONOISOTOPIC_WEIGHT>
348.17573251

> <PUBCHEM_TOTAL_CHARGE>
0

> <PUBCHEM_HEAVY_ATOM_COUNT>
24

> <PUBCHEM_ATOM_DEF_STEREO_COUNT>
0

> <PUBCHEM_ATOM_UDEF_STEREO_COUNT>
0

> <PUBCHEM_BOND_DEF_STEREO_COUNT>
0

> <PUBCHEM_BOND_UDEF_STEREO_COUNT>
0

> <PUBCHEM_ISOTOPIC_ATOM_COUNT>
0

> <PUBCHEM_COMPONENT_COUNT>
1

> <PUBCHEM_CACTVS_TAUTO_COUNT>
-1

> <PUBCHEM_COORDINATE_TYPE>
1
5
255

> <PUBCHEM_BONDANNOTATIONS>
10  16  8
10  17  8
11  16  8
11  18  8
12  17  8
12  18  8

$$$$
