 
  -OEChem-10192104012D

 59 61  0     1  0  0  0  0  0999 V2000
    7.1962   -1.2500    0.0000 O   0  0  0  0  0  0  0  0  0  0  0  0
    5.4641   -3.2500    0.0000 O   0  0  0  0  0  0  0  0  0  0  0  0
    7.1962   -4.2500    0.0000 O   0  0  0  0  0  0  0  0  0  0  0  0
    8.9282   -1.2500    0.0000 O   0  0  0  0  0  0  0  0  0  0  0  0
    8.9282   -3.2500    0.0000 O   0  0  0  0  0  0  0  0  0  0  0  0
    5.4641   -0.2500    0.0000 O   0  0  0  0  0  0  0  0  0  0  0  0
    3.7320   -0.2500    0.0000 O   0  0  0  0  0  0  0  0  0  0  0  0
    8.9282    2.7500    0.0000 O   0  0  0  0  0  0  0  0  0  0  0  0
    2.8660    3.2500    0.0000 O   0  0  0  0  0  0  0  0  0  0  0  0
    6.3301    3.2500    0.0000 O   0  0  0  0  0  0  0  0  0  0  0  0
   11.5263    1.2500    0.0000 O   0  0  0  0  0  0  0  0  0  0  0  0
    4.5981    4.2500    0.0000 O   0  0  0  0  0  0  0  0  0  0  0  0
   10.6603    2.7500    0.0000 O   0  0  0  0  0  0  0  0  0  0  0  0
    6.3301   -2.7500    0.0000 C   0  0  1  0  0  0  0  0  0  0  0  0
    7.1962   -3.2500    0.0000 C   0  0  1  0  0  0  0  0  0  0  0  0
    6.3301   -1.7500    0.0000 C   0  0  1  0  0  0  0  0  0  0  0  0
    8.0622   -2.7500    0.0000 C   0  0  2  0  0  0  0  0  0  0  0  0
    8.0622   -1.7500    0.0000 C   0  0  1  0  0  0  0  0  0  0  0  0
    5.4641   -1.2500    0.0000 C   0  0  0  0  0  0  0  0  0  0  0  0
    8.9282   -0.2500    0.0000 C   0  0  0  0  0  0  0  0  0  0  0  0
    4.5981    0.2500    0.0000 C   0  0  0  0  0  0  0  0  0  0  0  0
    9.7942    0.2500    0.0000 C   0  0  0  0  0  0  0  0  0  0  0  0
    8.0622    0.2500    0.0000 C   0  0  0  0  0  0  0  0  0  0  0  0
    4.5981    1.2500    0.0000 C   0  0  0  0  0  0  0  0  0  0  0  0
    9.7942    1.2500    0.0000 C   0  0  0  0  0  0  0  0  0  0  0  0
    8.0622    1.2500    0.0000 C   0  0  0  0  0  0  0  0  0  0  0  0
    8.9282    1.7500    0.0000 C   0  0  0  0  0  0  0  0  0  0  0  0
    5.4641    1.7500    0.0000 C   0  0  0  0  0  0  0  0  0  0  0  0
    3.7320    1.7500    0.0000 C   0  0  0  0  0  0  0  0  0  0  0  0
   10.6603    1.7500    0.0000 C   0  0  0  0  0  0  0  0  0  0  0  0
    3.7320    2.7500    0.0000 C   0  0  0  0  0  0  0  0  0  0  0  0
    5.4641    2.7500    0.0000 C   0  0  0  0  0  0  0  0  0  0  0  0
    4.5981    3.2500    0.0000 C   0  0  0  0  0  0  0  0  0  0  0  0
    2.0000    2.7500    0.0000 C   0  0  0  0  0  0  0  0  0  0  0  0
    6.3301    4.2500    0.0000 C   0  0  0  0  0  0  0  0  0  0  0  0
    5.7932   -2.4400    0.0000 H   0  0  0  0  0  0  0  0  0  0  0  0
    6.6592   -3.5600    0.0000 H   0  0  0  0  0  0  0  0  0  0  0  0
    6.3301   -1.1300    0.0000 H   0  0  0  0  0  0  0  0  0  0  0  0
    8.0622   -3.3700    0.0000 H   0  0  0  0  0  0  0  0  0  0  0  0
    8.0622   -1.1300    0.0000 H   0  0  0  0  0  0  0  0  0  0  0  0
    4.8535   -1.1423    0.0000 H   0  0  0  0  0  0  0  0  0  0  0  0
    5.2520   -1.8326    0.0000 H   0  0  0  0  0  0  0  0  0  0  0  0
    4.9272   -2.9400    0.0000 H   0  0  0  0  0  0  0  0  0  0  0  0
    6.6592   -4.5600    0.0000 H   0  0  0  0  0  0  0  0  0  0  0  0
    9.4651   -2.9400    0.0000 H   0  0  0  0  0  0  0  0  0  0  0  0
   10.3312   -0.0600    0.0000 H   0  0  0  0  0  0  0  0  0  0  0  0
    7.5252   -0.0600    0.0000 H   0  0  0  0  0  0  0  0  0  0  0  0
    7.5252    1.5600    0.0000 H   0  0  0  0  0  0  0  0  0  0  0  0
    6.0010    1.4400    0.0000 H   0  0  0  0  0  0  0  0  0  0  0  0
    3.1951    1.4400    0.0000 H   0  0  0  0  0  0  0  0  0  0  0  0
    8.3913    3.0600    0.0000 H   0  0  0  0  0  0  0  0  0  0  0  0
   12.0632    1.5600    0.0000 H   0  0  0  0  0  0  0  0  0  0  0  0
    4.0611    4.5600    0.0000 H   0  0  0  0  0  0  0  0  0  0  0  0
    1.6900    3.2869    0.0000 H   0  0  0  0  0  0  0  0  0  0  0  0
    1.4631    2.4400    0.0000 H   0  0  0  0  0  0  0  0  0  0  0  0
    2.3100    2.2131    0.0000 H   0  0  0  0  0  0  0  0  0  0  0  0
    6.9501    4.2500    0.0000 H   0  0  0  0  0  0  0  0  0  0  0  0
    6.3301    4.8700    0.0000 H   0  0  0  0  0  0  0  0  0  0  0  0
    5.7101    4.2500    0.0000 H   0  0  0  0  0  0  0  0  0  0  0  0
  1 16  1  0  0  0  0
  1 18  1  0  0  0  0
 14  2  1  6  0  0  0
  2 43  1  0  0  0  0
 15  3  1  1  0  0  0
  3 44  1  0  0  0  0
 18  4  1  1  0  0  0
  4 20  1  0  0  0  0
 17  5  1  6  0  0  0
  5 45  1  0  0  0  0
  6 19  1  0  0  0  0
  6 21  1  0  0  0  0
  7 21  2  0  0  0  0
  8 27  1  0  0  0  0
  8 51  1  0  0  0  0
  9 31  1  0  0  0  0
  9 34  1  0  0  0  0
 10 32  1  0  0  0  0
 10 35  1  0  0  0  0
 11 30  1  0  0  0  0
 11 52  1  0  0  0  0
 12 33  1  0  0  0  0
 12 53  1  0  0  0  0
 13 30  2  0  0  0  0
 14 15  1  0  0  0  0
 14 16  1  0  0  0  0
 14 36  1  0  0  0  0
 15 17  1  0  0  0  0
 15 37  1  0  0  0  0
 16 19  1  1  0  0  0
 16 38  1  0  0  0  0
 17 18  1  0  0  0  0
 17 39  1  0  0  0  0
 18 40  1  0  0  0  0
 19 41  1  0  0  0  0
 19 42  1  0  0  0  0
 20 22  2  0  0  0  0
 20 23  1  0  0  0  0
 21 24  1  0  0  0  0
 22 25  1  0  0  0  0
 22 46  1  0  0  0  0
 23 26  2  0  0  0  0
 23 47  1  0  0  0  0
 24 28  2  0  0  0  0
 24 29  1  0  0  0  0
 25 27  2  0  0  0  0
 25 30  1  0  0  0  0
 26 27  1  0  0  0  0
 26 48  1  0  0  0  0
 28 32  1  0  0  0  0
 28 49  1  0  0  0  0
 29 31  2  0  0  0  0
 29 50  1  0  0  0  0
 31 33  1  0  0  0  0
 32 33  2  0  0  0  0
 34 54  1  0  0  0  0
 34 55  1  0  0  0  0
 34 56  1  0  0  0  0
 35 57  1  0  0  0  0
 35 58  1  0  0  0  0
 35 59  1  0  0  0  0
M  END
> <PUBCHEM_COMPOUND_CID>
102420684

> <PUBCHEM_COMPOUND_CANONICALIZED>
1

> <PUBCHEM_CACTVS_COMPLEXITY>
706

> <PUBCHEM_CACTVS_HBOND_ACCEPTOR>
13

> <PUBCHEM_CACTVS_HBOND_DONOR>
6

> <PUBCHEM_CACTVS_ROTATABLE_BOND>
9

> <PUBCHEM_CACTVS_SUBSKEYS>
AAADceB4PAAAAAAAAAAAAAAAAAAAAAAAAAA0YIAAAAAAAAABQAAAGgAACAAADBSwmAMyDoAABgCIAiDSCAACCAAkIAAIiAEGiMgdNzaGNRqieWOl4BUPuYfK7DzOIQABCAAIQABCAAIQABCAAAAAAAAAAA==

> <PUBCHEM_IUPAC_OPENEYE_NAME>
2-hydroxy-5-[(2S,3R,4S,5S,6R)-3,4,5-trihydroxy-6-[(4-hydroxy-3,5-dimethoxy-benzoyl)oxymethyl]tetrahydropyran-2-yl]oxy-benzoic acid

> <PUBCHEM_IUPAC_CAS_NAME>
2-hydroxy-5-[[(2S,3R,4S,5S,6R)-3,4,5-trihydroxy-6-[[(4-hydroxy-3,5-dimethoxyphenyl)-oxomethoxy]methyl]-2-oxanyl]oxy]benzoic acid

> <PUBCHEM_IUPAC_NAME_MARKUP>
2-hydroxy-5-[(2<I>S</I>,3<I>R</I>,4<I>S</I>,5<I>S</I>,6<I>R</I>)-3,4,5-trihydroxy-6-[(4-hydroxy-3,5-dimethoxybenzoyl)oxymethyl]oxan-2-yl]oxybenzoic acid

> <PUBCHEM_IUPAC_NAME>
2-hydroxy-5-[(2S,3R,4S,5S,6R)-3,4,5-trihydroxy-6-[(4-hydroxy-3,5-dimethoxybenzoyl)oxymethyl]oxan-2-yl]oxybenzoic acid

> <PUBCHEM_IUPAC_SYSTEMATIC_NAME>
5-[(2S,3R,4S,5S,6R)-6-[(3,5-dimethoxy-4-oxidanyl-phenyl)carbonyloxymethyl]-3,4,5-tris(oxidanyl)oxan-2-yl]oxy-2-oxidanyl-benzoic acid

> <PUBCHEM_IUPAC_TRADITIONAL_NAME>
2-hydroxy-5-[(2S,3R,4S,5S,6R)-3,4,5-trihydroxy-6-(syringoyloxymethyl)tetrahydropyran-2-yl]oxy-benzoic acid

> <PUBCHEM_IUPAC_INCHI>
InChI=1S/C22H24O13/c1-31-13-5-9(6-14(32-2)16(13)24)21(30)33-8-15-17(25)18(26)19(27)22(35-15)34-10-3-4-12(23)11(7-10)20(28)29/h3-7,15,17-19,22-27H,8H2,1-2H3,(H,28,29)/t15-,17-,18+,19-,22-/m1/s1

> <PUBCHEM_IUPAC_INCHIKEY>
DXVNJGRGZAKJFR-DRASZATQSA-N

> <PUBCHEM_XLOGP3_AA>
0.8

> <PUBCHEM_EXACT_MASS>
496.12169082

> <PUBCHEM_MOLECULAR_FORMULA>
C22H24O13

> <PUBCHEM_MOLECULAR_WEIGHT>
496.4

> <PUBCHEM_OPENEYE_CAN_SMILES>
COC1=CC(=CC(=C1O)OC)C(=O)OCC2C(C(C(C(O2)OC3=CC(=C(C=C3)O)C(=O)O)O)O)O

> <PUBCHEM_OPENEYE_ISO_SMILES>
COC1=CC(=CC(=C1O)OC)C(=O)OC[C@@H]2[C@H]([C@@H]([C@H]([C@@H](O2)OC3=CC(=C(C=C3)O)C(=O)O)O)O)O

> <PUBCHEM_CACTVS_TPSA>
202

> <PUBCHEM_MONOISOTOPIC_WEIGHT>
496.12169082

> <PUBCHEM_TOTAL_CHARGE>
0

> <PUBCHEM_HEAVY_ATOM_COUNT>
35

> <PUBCHEM_ATOM_DEF_STEREO_COUNT>
5

> <PUBCHEM_ATOM_UDEF_STEREO_COUNT>
0

> <PUBCHEM_BOND_DEF_STEREO_COUNT>
0

> <PUBCHEM_BOND_UDEF_STEREO_COUNT>
0

> <PUBCHEM_ISOTOPIC_ATOM_COUNT>
0

> <PUBCHEM_COMPONENT_COUNT>
1

> <PUBCHEM_CACTVS_TAUTO_COUNT>
-1

> <PUBCHEM_COORDINATE_TYPE>
1
5
255

> <PUBCHEM_BONDANNOTATIONS>
16  19  5
14  2  6
20  22  8
20  23  8
22  25  8
23  26  8
24  28  8
24  29  8
25  27  8
26  27  8
28  32  8
29  31  8
15  3  5
31  33  8
32  33  8
18  4  5
17  5  6

$$$$
