 
  -OEChem-10192103392D

 38 37  0     1  0  0  0  0  0999 V2000
   10.2942   -1.1160    0.0000 S   0  0  0  0  0  0  0  0  0  0  0  0
    9.7942   -0.2500    0.0000 P   0  0  3  0  0  0  0  0  0  0  0  0
   12.3923    0.2500    0.0000 P   0  0  0  0  0  0  0  0  0  0  0  0
    8.9282   -0.7500    0.0000 O   0  0  0  0  0  0  0  0  0  0  0  0
   10.6603    0.2500    0.0000 O   0  0  0  0  0  0  0  0  0  0  0  0
    9.2942    0.6160    0.0000 O   0  0  0  0  0  0  0  0  0  0  0  0
   11.5263   -0.2500    0.0000 O   0  0  0  0  0  0  0  0  0  0  0  0
   13.2583    0.7500    0.0000 O   0  0  0  0  0  0  0  0  0  0  0  0
   12.8923   -0.6160    0.0000 O   0  0  0  0  0  0  0  0  0  0  0  0
   11.8923    1.1160    0.0000 O   0  0  0  0  0  0  0  0  0  0  0  0
    5.4641   -0.7500    0.0000 C   0  0  0  0  0  0  0  0  0  0  0  0
    4.5981   -0.2500    0.0000 C   0  0  0  0  0  0  0  0  0  0  0  0
    6.3301   -0.2500    0.0000 C   0  0  0  0  0  0  0  0  0  0  0  0
    3.7320   -0.7500    0.0000 C   0  0  0  0  0  0  0  0  0  0  0  0
    7.1962   -0.7500    0.0000 C   0  0  0  0  0  0  0  0  0  0  0  0
    2.8660   -0.2500    0.0000 C   0  0  0  0  0  0  0  0  0  0  0  0
    8.0622   -0.2500    0.0000 C   0  0  0  0  0  0  0  0  0  0  0  0
    2.0000   -0.7500    0.0000 C   0  0  0  0  0  0  0  0  0  0  0  0
    5.0656   -1.2250    0.0000 H   0  0  0  0  0  0  0  0  0  0  0  0
    5.8626   -1.2250    0.0000 H   0  0  0  0  0  0  0  0  0  0  0  0
    4.9966    0.2249    0.0000 H   0  0  0  0  0  0  0  0  0  0  0  0
    4.1996    0.2249    0.0000 H   0  0  0  0  0  0  0  0  0  0  0  0
    6.7287    0.2249    0.0000 H   0  0  0  0  0  0  0  0  0  0  0  0
    5.9316    0.2249    0.0000 H   0  0  0  0  0  0  0  0  0  0  0  0
    3.3335   -1.2250    0.0000 H   0  0  0  0  0  0  0  0  0  0  0  0
    4.1306   -1.2250    0.0000 H   0  0  0  0  0  0  0  0  0  0  0  0
    6.7976   -1.2250    0.0000 H   0  0  0  0  0  0  0  0  0  0  0  0
    7.5947   -1.2250    0.0000 H   0  0  0  0  0  0  0  0  0  0  0  0
    3.2646    0.2249    0.0000 H   0  0  0  0  0  0  0  0  0  0  0  0
    2.4675    0.2249    0.0000 H   0  0  0  0  0  0  0  0  0  0  0  0
    8.4607    0.2249    0.0000 H   0  0  0  0  0  0  0  0  0  0  0  0
    7.6636    0.2249    0.0000 H   0  0  0  0  0  0  0  0  0  0  0  0
    1.6900   -0.2131    0.0000 H   0  0  0  0  0  0  0  0  0  0  0  0
    1.4631   -1.0600    0.0000 H   0  0  0  0  0  0  0  0  0  0  0  0
    2.3100   -1.2869    0.0000 H   0  0  0  0  0  0  0  0  0  0  0  0
    9.6042    1.1530    0.0000 H   0  0  0  0  0  0  0  0  0  0  0  0
   13.7953    0.4400    0.0000 H   0  0  0  0  0  0  0  0  0  0  0  0
   12.5823   -1.1530    0.0000 H   0  0  0  0  0  0  0  0  0  0  0  0
  1  2  2  0  0  0  0
  2  4  1  0  0  0  0
  2  5  1  0  0  0  0
  2  6  1  0  0  0  0
  3  7  1  0  0  0  0
  3  8  1  0  0  0  0
  3  9  1  0  0  0  0
  3 10  2  0  0  0  0
  4 17  1  0  0  0  0
  5  7  1  0  0  0  0
  6 36  1  0  0  0  0
  8 37  1  0  0  0  0
  9 38  1  0  0  0  0
 11 12  1  0  0  0  0
 11 13  1  0  0  0  0
 11 19  1  0  0  0  0
 11 20  1  0  0  0  0
 12 14  1  0  0  0  0
 12 21  1  0  0  0  0
 12 22  1  0  0  0  0
 13 15  1  0  0  0  0
 13 23  1  0  0  0  0
 13 24  1  0  0  0  0
 14 16  1  0  0  0  0
 14 25  1  0  0  0  0
 14 26  1  0  0  0  0
 15 17  1  0  0  0  0
 15 27  1  0  0  0  0
 15 28  1  0  0  0  0
 16 18  1  0  0  0  0
 16 29  1  0  0  0  0
 16 30  1  0  0  0  0
 17 31  1  0  0  0  0
 17 32  1  0  0  0  0
 18 33  1  0  0  0  0
 18 34  1  0  0  0  0
 18 35  1  0  0  0  0
M  END
> <PUBCHEM_COMPOUND_CID>
88807587

> <PUBCHEM_COMPOUND_CANONICALIZED>
1

> <PUBCHEM_CACTVS_COMPLEXITY>
306

> <PUBCHEM_CACTVS_HBOND_ACCEPTOR>
8

> <PUBCHEM_CACTVS_HBOND_DONOR>
3

> <PUBCHEM_CACTVS_ROTATABLE_BOND>
11

> <PUBCHEM_CACTVS_SUBSKEYS>
AAADceBwOANAAAAAAAAAAAAAAAAAAAAAAAAAAAAAAAAAAAAAAAAAGgAADCAACACggAICAAAAARAAQAAAAIAAAAAAAAAAAAAAAAAAAAIAAAAAAAAEAAAAAAGAwKAAAAAAAAAAAAAAAAAAAAAAAAAAAAAAAA==

> <PUBCHEM_IUPAC_OPENEYE_NAME>
[hydroxy(octoxy)phosphinothioyl]oxy dihydrogen phosphate

> <PUBCHEM_IUPAC_CAS_NAME>
[hydroxy(octoxy)phosphinothioyl]oxy dihydrogen phosphate

> <PUBCHEM_IUPAC_NAME_MARKUP>
[hydroxy(octoxy)phosphinothioyl]oxy dihydrogen phosphate

> <PUBCHEM_IUPAC_NAME>
[hydroxy(octoxy)phosphinothioyl]oxy dihydrogen phosphate

> <PUBCHEM_IUPAC_SYSTEMATIC_NAME>
[octoxy(oxidanyl)phosphinothioyl]oxy dihydrogen phosphate

> <PUBCHEM_IUPAC_TRADITIONAL_NAME>
[hydroxy(octoxy)thiophosphoryl]oxy dihydrogen phosphate

> <PUBCHEM_IUPAC_INCHI>
InChI=1S/C8H20O7P2S/c1-2-3-4-5-6-7-8-13-17(12,18)15-14-16(9,10)11/h2-8H2,1H3,(H,12,18)(H2,9,10,11)

> <PUBCHEM_IUPAC_INCHIKEY>
AYWJSMMGVLQLGH-UHFFFAOYSA-N

> <PUBCHEM_XLOGP3_AA>
2.5

> <PUBCHEM_EXACT_MASS>
322.04049814

> <PUBCHEM_MOLECULAR_FORMULA>
C8H20O7P2S

> <PUBCHEM_MOLECULAR_WEIGHT>
322.26

> <PUBCHEM_OPENEYE_CAN_SMILES>
CCCCCCCCOP(=S)(O)OOP(=O)(O)O

> <PUBCHEM_OPENEYE_ISO_SMILES>
CCCCCCCCOP(=S)(O)OOP(=O)(O)O

> <PUBCHEM_CACTVS_TPSA>
138

> <PUBCHEM_MONOISOTOPIC_WEIGHT>
322.04049814

> <PUBCHEM_TOTAL_CHARGE>
0

> <PUBCHEM_HEAVY_ATOM_COUNT>
18

> <PUBCHEM_ATOM_DEF_STEREO_COUNT>
0

> <PUBCHEM_ATOM_UDEF_STEREO_COUNT>
0

> <PUBCHEM_BOND_DEF_STEREO_COUNT>
0

> <PUBCHEM_BOND_UDEF_STEREO_COUNT>
0

> <PUBCHEM_ISOTOPIC_ATOM_COUNT>
0

> <PUBCHEM_COMPONENT_COUNT>
1

> <PUBCHEM_CACTVS_TAUTO_COUNT>
-1

> <PUBCHEM_COORDINATE_TYPE>
1
5
255

$$$$
