 
  -OEChem-10192104092D

 86 90  0     1  0  0  0  0  0999 V2000
    4.3198    0.3526    0.0000 O   0  0  0  0  0  0  0  0  0  0  0  0
    2.5381   -2.7062    0.0000 O   0  0  0  0  0  0  0  0  0  0  0  0
    4.3283   -4.4486    0.0000 O   0  0  0  0  0  0  0  0  0  0  0  0
    2.8184   -3.6000    0.0000 O   0  0  0  0  0  0  0  0  0  0  0  0
   12.0985    2.2203    0.0000 O   0  0  0  0  0  0  0  0  0  0  0  0
   12.0724    4.8659    0.0000 O   0  0  0  0  0  0  0  0  0  0  0  0
    6.0682   -0.6820    0.0000 C   0  0  1  0  0  0  0  0  0  0  0  0
    5.2022   -1.1820    0.0000 C   0  0  2  0  0  0  0  0  0  0  0  0
    5.2020   -0.1816    0.0000 C   0  0  0  0  0  0  0  0  0  0  0  0
    6.9343   -1.1820    0.0000 C   0  0  2  0  0  0  0  0  0  0  0  0
    5.2022   -2.1820    0.0000 C   0  0  1  0  0  0  0  0  0  0  0  0
    7.8443   -0.6752    0.0000 C   0  0  1  0  0  0  0  0  0  0  0  0
    6.0522    0.3595    0.0000 C   0  0  0  0  0  0  0  0  0  0  0  0
    7.8523    0.3664    0.0000 C   0  0  2  0  0  0  0  0  0  0  0  0
    4.3083   -0.6474    0.0000 C   0  0  2  0  0  0  0  0  0  0  0  0
    6.9343   -2.1820    0.0000 C   0  0  0  0  0  0  0  0  0  0  0  0
    6.0682   -2.6820    0.0000 C   0  0  0  0  0  0  0  0  0  0  0  0
    6.9502    0.8872    0.0000 C   0  0  0  0  0  0  0  0  0  0  0  0
    4.3083   -2.7167    0.0000 C   0  0  2  0  0  0  0  0  0  0  0  0
    8.8403    0.6762    0.0000 C   0  0  2  0  0  0  0  0  0  0  0  0
    8.8274   -1.0002    0.0000 C   0  0  0  0  0  0  0  0  0  0  0  0
    3.4022   -1.1612    0.0000 C   0  0  0  0  0  0  0  0  0  0  0  0
    3.4022   -2.2029    0.0000 C   0  0  2  0  0  0  0  0  0  0  0  0
    9.4418   -0.1667    0.0000 C   0  0  0  0  0  0  0  0  0  0  0  0
    7.8366   -1.6752    0.0000 C   0  0  0  0  0  0  0  0  0  0  0  0
    7.8600    1.3664    0.0000 C   0  0  0  0  0  0  0  0  0  0  0  0
    9.1583    1.6243    0.0000 C   0  0  1  0  0  0  0  0  0  0  0  0
    4.8183   -3.5769    0.0000 C   0  0  0  0  0  0  0  0  0  0  0  0
    3.8183   -3.5884    0.0000 C   0  0  0  0  0  0  0  0  0  0  0  0
   10.1384    1.8230    0.0000 C   0  0  0  0  0  0  0  0  0  0  0  0
    8.4962    2.3737    0.0000 C   0  0  0  0  0  0  0  0  0  0  0  0
   10.4564    2.7711    0.0000 C   0  0  0  0  0  0  0  0  0  0  0  0
   11.4364    2.9698    0.0000 C   0  0  1  0  0  0  0  0  0  0  0  0
   11.7544    3.9178    0.0000 C   0  0  0  0  0  0  0  0  0  0  0  0
   12.7025    3.5999    0.0000 C   0  0  0  0  0  0  0  0  0  0  0  0
   10.8063    4.2358    0.0000 C   0  0  0  0  0  0  0  0  0  0  0  0
    5.4141    0.4010    0.0000 H   0  0  0  0  0  0  0  0  0  0  0  0
    4.5914   -0.0740    0.0000 H   0  0  0  0  0  0  0  0  0  0  0  0
    7.6671   -1.6127    0.0000 H   0  0  0  0  0  0  0  0  0  0  0  0
    5.2088   -3.0320    0.0000 H   0  0  0  0  0  0  0  0  0  0  0  0
    5.8342    0.9399    0.0000 H   0  0  0  0  0  0  0  0  0  0  0  0
    5.4431    0.2440    0.0000 H   0  0  0  0  0  0  0  0  0  0  0  0
    3.7744   -0.3322    0.0000 H   0  0  0  0  0  0  0  0  0  0  0  0
    7.1463   -2.7646    0.0000 H   0  0  0  0  0  0  0  0  0  0  0  0
    7.5449   -2.0744    0.0000 H   0  0  0  0  0  0  0  0  0  0  0  0
    5.6697   -3.1570    0.0000 H   0  0  0  0  0  0  0  0  0  0  0  0
    6.4668   -3.1570    0.0000 H   0  0  0  0  0  0  0  0  0  0  0  0
    7.3475    1.3632    0.0000 H   0  0  0  0  0  0  0  0  0  0  0  0
    6.5493    1.3601    0.0000 H   0  0  0  0  0  0  0  0  0  0  0  0
    9.6810    0.8016    0.0000 H   0  0  0  0  0  0  0  0  0  0  0  0
    8.5720   -1.5652    0.0000 H   0  0  0  0  0  0  0  0  0  0  0  0
    9.3624   -1.3136    0.0000 H   0  0  0  0  0  0  0  0  0  0  0  0
    3.1932   -0.5775    0.0000 H   0  0  0  0  0  0  0  0  0  0  0  0
    2.7914   -1.2673    0.0000 H   0  0  0  0  0  0  0  0  0  0  0  0
    2.8647   -1.8939    0.0000 H   0  0  0  0  0  0  0  0  0  0  0  0
    9.8994   -0.5849    0.0000 H   0  0  0  0  0  0  0  0  0  0  0  0
    9.9058    0.2445    0.0000 H   0  0  0  0  0  0  0  0  0  0  0  0
    7.2166   -1.6704    0.0000 H   0  0  0  0  0  0  0  0  0  0  0  0
    7.8318   -2.2952    0.0000 H   0  0  0  0  0  0  0  0  0  0  0  0
    8.4566   -1.6799    0.0000 H   0  0  0  0  0  0  0  0  0  0  0  0
    8.4800    1.3616    0.0000 H   0  0  0  0  0  0  0  0  0  0  0  0
    7.8648    1.9864    0.0000 H   0  0  0  0  0  0  0  0  0  0  0  0
    7.2400    1.3712    0.0000 H   0  0  0  0  0  0  0  0  0  0  0  0
    9.3555    2.2121    0.0000 H   0  0  0  0  0  0  0  0  0  0  0  0
    4.2850   -3.8931    0.0000 H   0  0  0  0  0  0  0  0  0  0  0  0
    5.1344   -4.1102    0.0000 H   0  0  0  0  0  0  0  0  0  0  0  0
    5.3516   -3.2607    0.0000 H   0  0  0  0  0  0  0  0  0  0  0  0
    3.7865    0.6687    0.0000 H   0  0  0  0  0  0  0  0  0  0  0  0
    2.0000   -2.3983    0.0000 H   0  0  0  0  0  0  0  0  0  0  0  0
   10.1542    1.2032    0.0000 H   0  0  0  0  0  0  0  0  0  0  0  0
   10.7515    1.7309    0.0000 H   0  0  0  0  0  0  0  0  0  0  0  0
    8.9609    2.7842    0.0000 H   0  0  0  0  0  0  0  0  0  0  0  0
    8.0857    2.8384    0.0000 H   0  0  0  0  0  0  0  0  0  0  0  0
    8.0316    1.9632    0.0000 H   0  0  0  0  0  0  0  0  0  0  0  0
    4.0245   -4.9891    0.0000 H   0  0  0  0  0  0  0  0  0  0  0  0
   10.4406    3.3909    0.0000 H   0  0  0  0  0  0  0  0  0  0  0  0
    9.8432    2.8632    0.0000 H   0  0  0  0  0  0  0  0  0  0  0  0
   12.0441    3.0929    0.0000 H   0  0  0  0  0  0  0  0  0  0  0  0
   12.7062    2.3435    0.0000 H   0  0  0  0  0  0  0  0  0  0  0  0
   12.5054    3.0120    0.0000 H   0  0  0  0  0  0  0  0  0  0  0  0
   13.2903    3.4027    0.0000 H   0  0  0  0  0  0  0  0  0  0  0  0
   12.8997    4.1877    0.0000 H   0  0  0  0  0  0  0  0  0  0  0  0
   11.0035    4.8236    0.0000 H   0  0  0  0  0  0  0  0  0  0  0  0
   10.2185    4.4330    0.0000 H   0  0  0  0  0  0  0  0  0  0  0  0
   10.6092    3.6480    0.0000 H   0  0  0  0  0  0  0  0  0  0  0  0
   12.6800    4.9891    0.0000 H   0  0  0  0  0  0  0  0  0  0  0  0
 15  1  1  6  0  0  0
  1 68  1  0  0  0  0
 23  2  1  1  0  0  0
  2 69  1  0  0  0  0
  3 29  1  0  0  0  0
  3 75  1  0  0  0  0
  4 29  2  0  0  0  0
 33  5  1  1  0  0  0
  5 79  1  0  0  0  0
  6 34  1  0  0  0  0
  6 86  1  0  0  0  0
  7  8  1  0  0  0  0
  7  9  1  1  0  0  0
  7 10  1  0  0  0  0
  7 13  1  0  0  0  0
  8  9  1  1  0  0  0
  8 11  1  0  0  0  0
  8 15  1  0  0  0  0
  9 37  1  0  0  0  0
  9 38  1  0  0  0  0
 10 12  1  0  0  0  0
 10 16  1  0  0  0  0
 10 39  1  1  0  0  0
 11 17  1  0  0  0  0
 11 19  1  0  0  0  0
 11 40  1  6  0  0  0
 12 14  1  0  0  0  0
 12 21  1  0  0  0  0
 12 25  1  6  0  0  0
 13 18  1  0  0  0  0
 13 41  1  0  0  0  0
 13 42  1  0  0  0  0
 14 18  1  0  0  0  0
 14 20  1  0  0  0  0
 14 26  1  1  0  0  0
 15 22  1  0  0  0  0
 15 43  1  0  0  0  0
 16 17  1  0  0  0  0
 16 44  1  0  0  0  0
 16 45  1  0  0  0  0
 17 46  1  0  0  0  0
 17 47  1  0  0  0  0
 18 48  1  0  0  0  0
 18 49  1  0  0  0  0
 19 23  1  0  0  0  0
 19 28  1  1  0  0  0
 19 29  1  0  0  0  0
 20 24  1  0  0  0  0
 20 27  1  0  0  0  0
 20 50  1  6  0  0  0
 21 24  1  0  0  0  0
 21 51  1  0  0  0  0
 21 52  1  0  0  0  0
 22 23  1  0  0  0  0
 22 53  1  0  0  0  0
 22 54  1  0  0  0  0
 23 55  1  0  0  0  0
 24 56  1  0  0  0  0
 24 57  1  0  0  0  0
 25 58  1  0  0  0  0
 25 59  1  0  0  0  0
 25 60  1  0  0  0  0
 26 61  1  0  0  0  0
 26 62  1  0  0  0  0
 26 63  1  0  0  0  0
 27 30  1  0  0  0  0
 27 31  1  6  0  0  0
 27 64  1  0  0  0  0
 28 65  1  0  0  0  0
 28 66  1  0  0  0  0
 28 67  1  0  0  0  0
 30 32  1  0  0  0  0
 30 70  1  0  0  0  0
 30 71  1  0  0  0  0
 31 72  1  0  0  0  0
 31 73  1  0  0  0  0
 31 74  1  0  0  0  0
 32 33  1  0  0  0  0
 32 76  1  0  0  0  0
 32 77  1  0  0  0  0
 33 34  1  0  0  0  0
 33 78  1  0  0  0  0
 34 35  1  0  0  0  0
 34 36  1  0  0  0  0
 35 80  1  0  0  0  0
 35 81  1  0  0  0  0
 35 82  1  0  0  0  0
 36 83  1  0  0  0  0
 36 84  1  0  0  0  0
 36 85  1  0  0  0  0
M  END
> <PUBCHEM_COMPOUND_CID>
10649269

> <PUBCHEM_COMPOUND_CANONICALIZED>
1

> <PUBCHEM_CACTVS_COMPLEXITY>
919

> <PUBCHEM_CACTVS_HBOND_ACCEPTOR>
6

> <PUBCHEM_CACTVS_HBOND_DONOR>
5

> <PUBCHEM_CACTVS_ROTATABLE_BOND>
6

> <PUBCHEM_CACTVS_SUBSKEYS>
AAADcfB4OAAAAAAAAAAAAAAAGAAAAYAAAAAwYMAABgAAAGDAAAAAGgAACAAAD1SggAICCAAAAgAIAACQCAAAAAAAAAAAAAEAAAABEBYAAAAAQAAFIAABAAGI7PTPgAAAAAAAAADAAAYQADAAAQAACAAAAA==

> <PUBCHEM_IUPAC_OPENEYE_NAME>
(1S,3S,4S,6S,7S,8R,11S,12S,15R,16R)-15-[(1R,4S)-4,5-dihydroxy-1,5-dimethyl-hexyl]-4,6-dihydroxy-7,12,16-trimethyl-pentacyclo[9.7.0.01,3.03,8.012,16]octadecane-7-carboxylic acid

> <PUBCHEM_IUPAC_CAS_NAME>
(1S,3S,4S,6S,7S,8R,11S,12S,15R,16R)-15-[(2R,5S)-5,6-dihydroxy-6-methylheptan-2-yl]-4,6-dihydroxy-7,12,16-trimethyl-7-pentacyclo[9.7.0.01,3.03,8.012,16]octadecanecarboxylic acid

> <PUBCHEM_IUPAC_NAME_MARKUP>
(1<I>S</I>,3<I>S</I>,4<I>S</I>,6<I>S</I>,7<I>S</I>,8<I>R</I>,11<I>S</I>,12<I>S</I>,15<I>R</I>,16<I>R</I>)-15-[(2<I>R</I>,5<I>S</I>)-5,6-dihydroxy-6-methylheptan-2-yl]-4,6-dihydroxy-7,12,16-trimethylpentacyclo[9.7.0.0<SUP>1,3</SUP>.0<SUP>3,8</SUP>.0<SUP>12,16</SUP>]octadecane-7-carboxylic acid

> <PUBCHEM_IUPAC_NAME>
(1S,3S,4S,6S,7S,8R,11S,12S,15R,16R)-15-[(2R,5S)-5,6-dihydroxy-6-methylheptan-2-yl]-4,6-dihydroxy-7,12,16-trimethylpentacyclo[9.7.0.01,3.03,8.012,16]octadecane-7-carboxylic acid

> <PUBCHEM_IUPAC_SYSTEMATIC_NAME>
(1S,3S,4S,6S,7S,8R,11S,12S,15R,16R)-7,12,16-trimethyl-15-[(2R,5S)-6-methyl-5,6-bis(oxidanyl)heptan-2-yl]-4,6-bis(oxidanyl)pentacyclo[9.7.0.01,3.03,8.012,16]octadecane-7-carboxylic acid

> <PUBCHEM_IUPAC_TRADITIONAL_NAME>
(1S,3S,4S,6S,7S,8R,11S,12S,15R,16R)-15-[(1R,4S)-4,5-dihydroxy-1,5-dimethyl-hexyl]-4,6-dihydroxy-7,12,16-trimethyl-pentacyclo[9.7.0.01,3.03,8.012,16]octadecane-7-carboxylic acid

> <PUBCHEM_IUPAC_INCHI>
InChI=1S/C30H50O6/c1-17(7-10-21(31)25(2,3)36)18-11-12-27(5)19-8-9-20-28(6,24(34)35)22(32)15-23(33)30(20)16-29(19,30)14-13-26(18,27)4/h17-23,31-33,36H,7-16H2,1-6H3,(H,34,35)/t17-,18-,19+,20+,21+,22+,23+,26-,27+,28+,29+,30-/m1/s1

> <PUBCHEM_IUPAC_INCHIKEY>
WWIHQMXKPHUIKR-UVFBOVLQSA-N

> <PUBCHEM_XLOGP3_AA>
5.4

> <PUBCHEM_EXACT_MASS>
506.36073931

> <PUBCHEM_MOLECULAR_FORMULA>
C30H50O6

> <PUBCHEM_MOLECULAR_WEIGHT>
506.7

> <PUBCHEM_OPENEYE_CAN_SMILES>
CC(CCC(C(C)(C)O)O)C1CCC2(C1(CCC34C2CCC5C3(C4)C(CC(C5(C)C(=O)O)O)O)C)C

> <PUBCHEM_OPENEYE_ISO_SMILES>
C[C@H](CC[C@@H](C(C)(C)O)O)[C@H]1CC[C@@]2([C@@]1(CC[C@]34[C@H]2CC[C@@H]5[C@]3(C4)[C@H](C[C@@H]([C@@]5(C)C(=O)O)O)O)C)C

> <PUBCHEM_CACTVS_TPSA>
118

> <PUBCHEM_MONOISOTOPIC_WEIGHT>
506.36073931

> <PUBCHEM_TOTAL_CHARGE>
0

> <PUBCHEM_HEAVY_ATOM_COUNT>
36

> <PUBCHEM_ATOM_DEF_STEREO_COUNT>
12

> <PUBCHEM_ATOM_UDEF_STEREO_COUNT>
0

> <PUBCHEM_BOND_DEF_STEREO_COUNT>
0

> <PUBCHEM_BOND_UDEF_STEREO_COUNT>
0

> <PUBCHEM_ISOTOPIC_ATOM_COUNT>
0

> <PUBCHEM_COMPONENT_COUNT>
1

> <PUBCHEM_CACTVS_TAUTO_COUNT>
-1

> <PUBCHEM_COORDINATE_TYPE>
1
5
255

> <PUBCHEM_BONDANNOTATIONS>
15  1  6
10  39  5
11  40  6
12  25  6
14  26  5
19  28  5
23  2  5
20  50  6
27  31  6
33  5  5
7  9  5
8  9  5

$$$$
