 
  -OEChem-10192104162D

 37 39  0     0  0  0  0  0  0999 V2000
    5.4920   -1.3797    0.0000 O   0  0  0  0  0  0  0  0  0  0  0  0
    3.7320    1.6550    0.0000 O   0  0  0  0  0  0  0  0  0  0  0  0
    5.4804    1.6896    0.0000 O   0  0  0  0  0  0  0  0  0  0  0  0
    2.0000   -1.3450    0.0000 O   0  0  0  0  0  0  0  0  0  0  0  0
    7.2699   -1.3208    0.0000 O   0  0  0  0  0  0  0  0  0  0  0  0
   10.7340   -1.3075    0.0000 O   0  0  0  0  0  0  0  0  0  0  0  0
    6.3981    0.1758    0.0000 C   0  0  0  0  0  0  0  0  0  0  0  0
    4.5981    0.1550    0.0000 C   0  0  0  0  0  0  0  0  0  0  0  0
    7.2622    0.6792    0.0000 C   0  0  0  0  0  0  0  0  0  0  0  0
    5.4920    0.6897    0.0000 C   0  0  0  0  0  0  0  0  0  0  0  0
    4.5981   -0.8450    0.0000 C   0  0  0  0  0  0  0  0  0  0  0  0
    8.1301    0.1825    0.0000 C   0  0  0  0  0  0  0  0  0  0  0  0
    3.7320    0.6550    0.0000 C   0  0  0  0  0  0  0  0  0  0  0  0
    2.8660    0.1550    0.0000 C   0  0  0  0  0  0  0  0  0  0  0  0
    6.3981   -0.8658    0.0000 C   0  0  0  0  0  0  0  0  0  0  0  0
    3.7320   -1.3450    0.0000 C   0  0  0  0  0  0  0  0  0  0  0  0
    2.8660   -0.8450    0.0000 C   0  0  0  0  0  0  0  0  0  0  0  0
    8.1340   -0.8175    0.0000 C   0  0  0  0  0  0  0  0  0  0  0  0
    8.9942    0.6858    0.0000 C   0  0  0  0  0  0  0  0  0  0  0  0
    2.0000    0.6550    0.0000 C   0  0  0  0  0  0  0  0  0  0  0  0
    9.0019   -1.3142    0.0000 C   0  0  0  0  0  0  0  0  0  0  0  0
    9.8622    0.1892    0.0000 C   0  0  0  0  0  0  0  0  0  0  0  0
    9.8660   -0.8108    0.0000 C   0  0  0  0  0  0  0  0  0  0  0  0
    7.6589    1.1556    0.0000 H   0  0  0  0  0  0  0  0  0  0  0  0
    6.8618    1.1526    0.0000 H   0  0  0  0  0  0  0  0  0  0  0  0
    6.9338   -1.1779    0.0000 H   0  0  0  0  0  0  0  0  0  0  0  0
    3.7320   -1.9650    0.0000 H   0  0  0  0  0  0  0  0  0  0  0  0
    8.9918    1.3058    0.0000 H   0  0  0  0  0  0  0  0  0  0  0  0
    2.3100    1.1919    0.0000 H   0  0  0  0  0  0  0  0  0  0  0  0
    1.4631    0.9650    0.0000 H   0  0  0  0  0  0  0  0  0  0  0  0
    1.6900    0.1181    0.0000 H   0  0  0  0  0  0  0  0  0  0  0  0
    9.0043   -1.9342    0.0000 H   0  0  0  0  0  0  0  0  0  0  0  0
   10.3979    0.5012    0.0000 H   0  0  0  0  0  0  0  0  0  0  0  0
    3.1951    1.9650    0.0000 H   0  0  0  0  0  0  0  0  0  0  0  0
    2.0000   -1.9650    0.0000 H   0  0  0  0  0  0  0  0  0  0  0  0
    7.2723   -1.9408    0.0000 H   0  0  0  0  0  0  0  0  0  0  0  0
   11.2697   -0.9954    0.0000 H   0  0  0  0  0  0  0  0  0  0  0  0
  1 11  1  0  0  0  0
  1 15  1  0  0  0  0
  2 13  1  0  0  0  0
  2 34  1  0  0  0  0
  3 10  2  0  0  0  0
  4 17  1  0  0  0  0
  4 35  1  0  0  0  0
  5 18  1  0  0  0  0
  5 36  1  0  0  0  0
  6 23  1  0  0  0  0
  6 37  1  0  0  0  0
  7  9  1  0  0  0  0
  7 10  1  0  0  0  0
  7 15  2  0  0  0  0
  8 10  1  0  0  0  0
  8 11  2  0  0  0  0
  8 13  1  0  0  0  0
  9 12  1  0  0  0  0
  9 24  1  0  0  0  0
  9 25  1  0  0  0  0
 11 16  1  0  0  0  0
 12 18  2  0  0  0  0
 12 19  1  0  0  0  0
 13 14  2  0  0  0  0
 14 17  1  0  0  0  0
 14 20  1  0  0  0  0
 15 26  1  0  0  0  0
 16 17  2  0  0  0  0
 16 27  1  0  0  0  0
 18 21  1  0  0  0  0
 19 22  2  0  0  0  0
 19 28  1  0  0  0  0
 20 29  1  0  0  0  0
 20 30  1  0  0  0  0
 20 31  1  0  0  0  0
 21 23  2  0  0  0  0
 21 32  1  0  0  0  0
 22 23  1  0  0  0  0
 22 33  1  0  0  0  0
M  END
> <PUBCHEM_COMPOUND_CID>
44514018

> <PUBCHEM_COMPOUND_CANONICALIZED>
1

> <PUBCHEM_CACTVS_COMPLEXITY>
490

> <PUBCHEM_CACTVS_HBOND_ACCEPTOR>
6

> <PUBCHEM_CACTVS_HBOND_DONOR>
4

> <PUBCHEM_CACTVS_ROTATABLE_BOND>
2

> <PUBCHEM_CACTVS_SUBSKEYS>
AAADccB4OAAAAAAAAAAAAAAAAAAAAAAAAAAwYIAAAAAAAACBQAAAGgAACAAADASgmAIyBoAABgCIAqBSAAACCAAkIAAIiAEGCMgMJzaGNRqAcWAl4BUIuYeI7OzOIAACCAAIAABAAAQQABAAAAAAAAAAAA==

> <PUBCHEM_IUPAC_OPENEYE_NAME>
3-[(2,4-dihydroxyphenyl)methyl]-5,7-dihydroxy-6-methyl-chromen-4-one

> <PUBCHEM_IUPAC_CAS_NAME>
3-[(2,4-dihydroxyphenyl)methyl]-5,7-dihydroxy-6-methyl-1-benzopyran-4-one

> <PUBCHEM_IUPAC_NAME_MARKUP>
3-[(2,4-dihydroxyphenyl)methyl]-5,7-dihydroxy-6-methylchromen-4-one

> <PUBCHEM_IUPAC_NAME>
3-[(2,4-dihydroxyphenyl)methyl]-5,7-dihydroxy-6-methylchromen-4-one

> <PUBCHEM_IUPAC_SYSTEMATIC_NAME>
3-[[2,4-bis(oxidanyl)phenyl]methyl]-6-methyl-5,7-bis(oxidanyl)chromen-4-one

> <PUBCHEM_IUPAC_TRADITIONAL_NAME>
3-(2,4-dihydroxybenzyl)-5,7-dihydroxy-6-methyl-chromone

> <PUBCHEM_IUPAC_INCHI>
InChI=1S/C17H14O6/c1-8-12(19)6-14-15(16(8)21)17(22)10(7-23-14)4-9-2-3-11(18)5-13(9)20/h2-3,5-7,18-21H,4H2,1H3

> <PUBCHEM_IUPAC_INCHIKEY>
JHHYRXVWNLDNJB-UHFFFAOYSA-N

> <PUBCHEM_XLOGP3_AA>
3

> <PUBCHEM_EXACT_MASS>
314.07903816

> <PUBCHEM_MOLECULAR_FORMULA>
C17H14O6

> <PUBCHEM_MOLECULAR_WEIGHT>
314.29

> <PUBCHEM_OPENEYE_CAN_SMILES>
CC1=C(C2=C(C=C1O)OC=C(C2=O)CC3=C(C=C(C=C3)O)O)O

> <PUBCHEM_OPENEYE_ISO_SMILES>
CC1=C(C2=C(C=C1O)OC=C(C2=O)CC3=C(C=C(C=C3)O)O)O

> <PUBCHEM_CACTVS_TPSA>
107

> <PUBCHEM_MONOISOTOPIC_WEIGHT>
314.07903816

> <PUBCHEM_TOTAL_CHARGE>
0

> <PUBCHEM_HEAVY_ATOM_COUNT>
23

> <PUBCHEM_ATOM_DEF_STEREO_COUNT>
0

> <PUBCHEM_ATOM_UDEF_STEREO_COUNT>
0

> <PUBCHEM_BOND_DEF_STEREO_COUNT>
0

> <PUBCHEM_BOND_UDEF_STEREO_COUNT>
0

> <PUBCHEM_ISOTOPIC_ATOM_COUNT>
0

> <PUBCHEM_COMPONENT_COUNT>
1

> <PUBCHEM_CACTVS_TAUTO_COUNT>
-1

> <PUBCHEM_COORDINATE_TYPE>
1
5
255

> <PUBCHEM_BONDANNOTATIONS>
1  11  8
1  15  8
11  16  8
12  18  8
12  19  8
13  14  8
14  17  8
16  17  8
18  21  8
19  22  8
21  23  8
22  23  8
7  10  8
7  15  8
8  10  8
8  11  8
8  13  8

$$$$
