 
  -OEChem-10192103292D

 28 27  0     0  0  0  0  0  0999 V2000
    6.3301   -0.5600    0.0000 O   0  0  0  0  0  0  0  0  0  0  0  0
    3.7320   -0.0600    0.0000 O   0  0  0  0  0  0  0  0  0  0  0  0
    8.9282   -0.0600    0.0000 O   0  0  0  0  0  0  0  0  0  0  0  0
   11.5263   -0.5600    0.0000 O   0  0  0  0  0  0  0  0  0  0  0  0
    5.4641   -0.0600    0.0000 C   0  0  0  0  0  0  0  0  0  0  0  0
    4.5981   -0.5600    0.0000 C   0  0  0  0  0  0  0  0  0  0  0  0
    7.1962   -0.0600    0.0000 C   0  0  0  0  0  0  0  0  0  0  0  0
    8.0622   -0.5600    0.0000 C   0  0  0  0  0  0  0  0  0  0  0  0
    2.8660   -0.5600    0.0000 C   0  0  0  0  0  0  0  0  0  0  0  0
    2.0000   -0.0600    0.0000 C   0  0  0  0  0  0  0  0  0  0  0  0
    9.7942   -0.5600    0.0000 C   0  0  0  0  0  0  0  0  0  0  0  0
   10.6603   -0.0600    0.0000 C   0  0  0  0  0  0  0  0  0  0  0  0
    5.8626    0.4149    0.0000 H   0  0  0  0  0  0  0  0  0  0  0  0
    5.0656    0.4149    0.0000 H   0  0  0  0  0  0  0  0  0  0  0  0
    4.1996   -1.0350    0.0000 H   0  0  0  0  0  0  0  0  0  0  0  0
    4.9966   -1.0350    0.0000 H   0  0  0  0  0  0  0  0  0  0  0  0
    7.5947    0.4149    0.0000 H   0  0  0  0  0  0  0  0  0  0  0  0
    6.7976    0.4149    0.0000 H   0  0  0  0  0  0  0  0  0  0  0  0
    7.6636   -1.0350    0.0000 H   0  0  0  0  0  0  0  0  0  0  0  0
    8.4607   -1.0350    0.0000 H   0  0  0  0  0  0  0  0  0  0  0  0
    2.4675   -1.0350    0.0000 H   0  0  0  0  0  0  0  0  0  0  0  0
    3.2646   -1.0350    0.0000 H   0  0  0  0  0  0  0  0  0  0  0  0
    2.3100    0.4769    0.0000 H   0  0  0  0  0  0  0  0  0  0  0  0
    1.4631    0.2500    0.0000 H   0  0  0  0  0  0  0  0  0  0  0  0
    1.6900   -0.5969    0.0000 H   0  0  0  0  0  0  0  0  0  0  0  0
    9.3957   -1.0350    0.0000 H   0  0  0  0  0  0  0  0  0  0  0  0
   10.1928   -1.0350    0.0000 H   0  0  0  0  0  0  0  0  0  0  0  0
   10.6603    0.5600    0.0000 H   0  0  0  0  0  0  0  0  0  0  0  0
  1  5  1  0  0  0  0
  1  7  1  0  0  0  0
  2  6  1  0  0  0  0
  2  9  1  0  0  0  0
  3  8  1  0  0  0  0
  3 11  1  0  0  0  0
  4 12  2  0  0  0  0
  5  6  1  0  0  0  0
  5 13  1  0  0  0  0
  5 14  1  0  0  0  0
  6 15  1  0  0  0  0
  6 16  1  0  0  0  0
  7  8  1  0  0  0  0
  7 17  1  0  0  0  0
  7 18  1  0  0  0  0
  8 19  1  0  0  0  0
  8 20  1  0  0  0  0
  9 10  1  0  0  0  0
  9 21  1  0  0  0  0
  9 22  1  0  0  0  0
 10 23  1  0  0  0  0
 10 24  1  0  0  0  0
 10 25  1  0  0  0  0
 11 12  1  0  0  0  0
 11 26  1  0  0  0  0
 11 27  1  0  0  0  0
 12 28  1  0  0  0  0
M  END
> <PUBCHEM_COMPOUND_CID>
57224321

> <PUBCHEM_COMPOUND_CANONICALIZED>
1

> <PUBCHEM_CACTVS_COMPLEXITY>
95.1

> <PUBCHEM_CACTVS_HBOND_ACCEPTOR>
4

> <PUBCHEM_CACTVS_HBOND_DONOR>
0

> <PUBCHEM_CACTVS_ROTATABLE_BOND>
9

> <PUBCHEM_CACTVS_SUBSKEYS>
AAADceBwOAAAAAAAAAAAAAAAAAAAAAAAAAAAAAAAAAAAAAAAAAAAGgAAAAAAAACggAICAAAABAAIAAgQgAIAAAAAAAAAAABAAAABAAAAAAQCAAAAAAACAAAAAAAAAAAAAAAAAAAAAAAAAAAAAAAAAAAAAA==

> <PUBCHEM_IUPAC_OPENEYE_NAME>
2-[2-(2-ethoxyethoxy)ethoxy]acetaldehyde

> <PUBCHEM_IUPAC_CAS_NAME>
2-[2-(2-ethoxyethoxy)ethoxy]acetaldehyde

> <PUBCHEM_IUPAC_NAME_MARKUP>
2-[2-(2-ethoxyethoxy)ethoxy]acetaldehyde

> <PUBCHEM_IUPAC_NAME>
2-[2-(2-ethoxyethoxy)ethoxy]acetaldehyde

> <PUBCHEM_IUPAC_SYSTEMATIC_NAME>
2-[2-(2-ethoxyethoxy)ethoxy]ethanal

> <PUBCHEM_IUPAC_TRADITIONAL_NAME>
2-[2-(2-ethoxyethoxy)ethoxy]acetaldehyde

> <PUBCHEM_IUPAC_INCHI>
InChI=1S/C8H16O4/c1-2-10-5-6-12-8-7-11-4-3-9/h3H,2,4-8H2,1H3

> <PUBCHEM_IUPAC_INCHIKEY>
VIGPEKUIVIPDAG-UHFFFAOYSA-N

> <PUBCHEM_XLOGP3_AA>
-0.3

> <PUBCHEM_EXACT_MASS>
176.10485899

> <PUBCHEM_MOLECULAR_FORMULA>
C8H16O4

> <PUBCHEM_MOLECULAR_WEIGHT>
176.21

> <PUBCHEM_OPENEYE_CAN_SMILES>
CCOCCOCCOCC=O

> <PUBCHEM_OPENEYE_ISO_SMILES>
CCOCCOCCOCC=O

> <PUBCHEM_CACTVS_TPSA>
44.8

> <PUBCHEM_MONOISOTOPIC_WEIGHT>
176.10485899

> <PUBCHEM_TOTAL_CHARGE>
0

> <PUBCHEM_HEAVY_ATOM_COUNT>
12

> <PUBCHEM_ATOM_DEF_STEREO_COUNT>
0

> <PUBCHEM_ATOM_UDEF_STEREO_COUNT>
0

> <PUBCHEM_BOND_DEF_STEREO_COUNT>
0

> <PUBCHEM_BOND_UDEF_STEREO_COUNT>
0

> <PUBCHEM_ISOTOPIC_ATOM_COUNT>
0

> <PUBCHEM_COMPONENT_COUNT>
1

> <PUBCHEM_CACTVS_TAUTO_COUNT>
-1

> <PUBCHEM_COORDINATE_TYPE>
1
5
255

$$$$
