 
  -OEChem-10192103512D

 73 72  0     1  0  0  0  0  0999 V2000
   12.0632   -2.0950    0.0000 O   0  0  0  0  0  0  0  0  0  0  0  0
   14.6613   -3.5950    0.0000 O   0  0  0  0  0  0  0  0  0  0  0  0
   13.7953   -1.0950    0.0000 O   0  0  0  0  0  0  0  0  0  0  0  0
   15.5273   -1.0950    0.0000 O   0  0  0  0  0  0  0  0  0  0  0  0
   16.3933   -3.5950    0.0000 O   0  0  0  0  0  0  0  0  0  0  0  0
   11.1972   -3.5950    0.0000 O   0  0  0  0  0  0  0  0  0  0  0  0
   18.1254   -2.5950    0.0000 O   0  0  0  0  0  0  0  0  0  0  0  0
    7.7331   -2.5950    0.0000 C   0  0  0  0  0  0  0  0  0  0  0  0
    8.5991   -2.0950    0.0000 C   0  0  0  0  0  0  0  0  0  0  0  0
   14.6613   -2.5950    0.0000 C   0  0  2  0  0  0  0  0  0  0  0  0
    6.8671   -2.0950    0.0000 C   0  0  0  0  0  0  0  0  0  0  0  0
   13.7953   -2.0950    0.0000 C   0  0  1  0  0  0  0  0  0  0  0  0
    9.4651   -2.5950    0.0000 C   0  0  0  0  0  0  0  0  0  0  0  0
   15.5273   -2.0950    0.0000 C   0  0  1  0  0  0  0  0  0  0  0  0
    6.0010   -2.5950    0.0000 C   0  0  0  0  0  0  0  0  0  0  0  0
   10.3312   -2.0950    0.0000 C   0  0  0  0  0  0  0  0  0  0  0  0
   12.9292   -2.5950    0.0000 C   0  0  0  0  0  0  0  0  0  0  0  0
   16.3933   -2.5950    0.0000 C   0  0  2  0  0  0  0  0  0  0  0  0
    5.1350   -2.0950    0.0000 C   0  0  0  0  0  0  0  0  0  0  0  0
   11.1972   -2.5950    0.0000 C   0  0  0  0  0  0  0  0  0  0  0  0
    4.2690   -2.5950    0.0000 C   0  0  0  0  0  0  0  0  0  0  0  0
    3.4030    1.9050    0.0000 C   0  0  0  0  0  0  0  0  0  0  0  0
   17.2594   -2.0950    0.0000 C   0  0  0  0  0  0  0  0  0  0  0  0
    4.2690    2.4050    0.0000 C   0  0  0  0  0  0  0  0  0  0  0  0
    3.4030    0.9050    0.0000 C   0  0  0  0  0  0  0  0  0  0  0  0
    3.4030   -2.0950    0.0000 C   0  0  0  0  0  0  0  0  0  0  0  0
    4.2690    3.4050    0.0000 C   0  0  0  0  0  0  0  0  0  0  0  0
    3.4030   -1.0950    0.0000 C   0  0  0  0  0  0  0  0  0  0  0  0
    2.5369    0.4050    0.0000 C   0  0  0  0  0  0  0  0  0  0  0  0
    2.5369   -0.5950    0.0000 C   0  0  0  0  0  0  0  0  0  0  0  0
    5.1350    3.9050    0.0000 C   0  0  0  0  0  0  0  0  0  0  0  0
    7.3346   -3.0700    0.0000 H   0  0  0  0  0  0  0  0  0  0  0  0
    8.1316   -3.0700    0.0000 H   0  0  0  0  0  0  0  0  0  0  0  0
    8.9976   -1.6200    0.0000 H   0  0  0  0  0  0  0  0  0  0  0  0
    8.2006   -1.6200    0.0000 H   0  0  0  0  0  0  0  0  0  0  0  0
   14.1244   -2.9050    0.0000 H   0  0  0  0  0  0  0  0  0  0  0  0
    7.2656   -1.6200    0.0000 H   0  0  0  0  0  0  0  0  0  0  0  0
    6.4685   -1.6200    0.0000 H   0  0  0  0  0  0  0  0  0  0  0  0
   14.3322   -1.7850    0.0000 H   0  0  0  0  0  0  0  0  0  0  0  0
    9.0666   -3.0700    0.0000 H   0  0  0  0  0  0  0  0  0  0  0  0
    9.8637   -3.0700    0.0000 H   0  0  0  0  0  0  0  0  0  0  0  0
   16.0643   -1.7850    0.0000 H   0  0  0  0  0  0  0  0  0  0  0  0
    5.6025   -3.0700    0.0000 H   0  0  0  0  0  0  0  0  0  0  0  0
    6.3996   -3.0700    0.0000 H   0  0  0  0  0  0  0  0  0  0  0  0
   10.7297   -1.6200    0.0000 H   0  0  0  0  0  0  0  0  0  0  0  0
    9.9326   -1.6200    0.0000 H   0  0  0  0  0  0  0  0  0  0  0  0
   12.5307   -3.0700    0.0000 H   0  0  0  0  0  0  0  0  0  0  0  0
   13.3278   -3.0700    0.0000 H   0  0  0  0  0  0  0  0  0  0  0  0
   16.9303   -2.9050    0.0000 H   0  0  0  0  0  0  0  0  0  0  0  0
    5.5335   -1.6200    0.0000 H   0  0  0  0  0  0  0  0  0  0  0  0
    4.7365   -1.6200    0.0000 H   0  0  0  0  0  0  0  0  0  0  0  0
   14.1244   -3.9050    0.0000 H   0  0  0  0  0  0  0  0  0  0  0  0
    4.2690   -3.2150    0.0000 H   0  0  0  0  0  0  0  0  0  0  0  0
   13.2583   -0.7850    0.0000 H   0  0  0  0  0  0  0  0  0  0  0  0
   16.0643   -0.7850    0.0000 H   0  0  0  0  0  0  0  0  0  0  0  0
    3.1909    2.4876    0.0000 H   0  0  0  0  0  0  0  0  0  0  0  0
    2.7924    1.7973    0.0000 H   0  0  0  0  0  0  0  0  0  0  0  0
   17.2594   -1.4750    0.0000 H   0  0  0  0  0  0  0  0  0  0  0  0
    4.4810    1.8224    0.0000 H   0  0  0  0  0  0  0  0  0  0  0  0
    4.8796    2.5127    0.0000 H   0  0  0  0  0  0  0  0  0  0  0  0
    3.6150    0.3224    0.0000 H   0  0  0  0  0  0  0  0  0  0  0  0
    4.0135    1.0127    0.0000 H   0  0  0  0  0  0  0  0  0  0  0  0
    2.8660   -2.4050    0.0000 H   0  0  0  0  0  0  0  0  0  0  0  0
   16.9303   -3.9050    0.0000 H   0  0  0  0  0  0  0  0  0  0  0  0
    4.0569    3.9876    0.0000 H   0  0  0  0  0  0  0  0  0  0  0  0
    3.6584    3.2973    0.0000 H   0  0  0  0  0  0  0  0  0  0  0  0
    4.0135   -1.2027    0.0000 H   0  0  0  0  0  0  0  0  0  0  0  0
    3.6150   -0.5124    0.0000 H   0  0  0  0  0  0  0  0  0  0  0  0
    2.0000    0.7150    0.0000 H   0  0  0  0  0  0  0  0  0  0  0  0
    2.0000   -0.9050    0.0000 H   0  0  0  0  0  0  0  0  0  0  0  0
    5.4450    3.3681    0.0000 H   0  0  0  0  0  0  0  0  0  0  0  0
    5.6720    4.2150    0.0000 H   0  0  0  0  0  0  0  0  0  0  0  0
    4.8250    4.4419    0.0000 H   0  0  0  0  0  0  0  0  0  0  0  0
  1 17  1  0  0  0  0
  1 20  1  0  0  0  0
 10  2  1  6  0  0  0
  2 52  1  0  0  0  0
 12  3  1  1  0  0  0
  3 54  1  0  0  0  0
 14  4  1  6  0  0  0
  4 55  1  0  0  0  0
 18  5  1  6  0  0  0
  5 64  1  0  0  0  0
  6 20  2  0  0  0  0
  7 23  2  0  0  0  0
  8  9  1  0  0  0  0
  8 11  1  0  0  0  0
  8 32  1  0  0  0  0
  8 33  1  0  0  0  0
  9 13  1  0  0  0  0
  9 34  1  0  0  0  0
  9 35  1  0  0  0  0
 10 12  1  0  0  0  0
 10 14  1  0  0  0  0
 10 36  1  0  0  0  0
 11 15  1  0  0  0  0
 11 37  1  0  0  0  0
 11 38  1  0  0  0  0
 12 17  1  0  0  0  0
 12 39  1  0  0  0  0
 13 16  1  0  0  0  0
 13 40  1  0  0  0  0
 13 41  1  0  0  0  0
 14 18  1  0  0  0  0
 14 42  1  0  0  0  0
 15 19  1  0  0  0  0
 15 43  1  0  0  0  0
 15 44  1  0  0  0  0
 16 20  1  0  0  0  0
 16 45  1  0  0  0  0
 16 46  1  0  0  0  0
 17 47  1  0  0  0  0
 17 48  1  0  0  0  0
 18 23  1  0  0  0  0
 18 49  1  0  0  0  0
 19 21  1  0  0  0  0
 19 50  1  0  0  0  0
 19 51  1  0  0  0  0
 21 26  2  0  0  0  0
 21 53  1  0  0  0  0
 22 24  1  0  0  0  0
 22 25  1  0  0  0  0
 22 56  1  0  0  0  0
 22 57  1  0  0  0  0
 23 58  1  0  0  0  0
 24 27  1  0  0  0  0
 24 59  1  0  0  0  0
 24 60  1  0  0  0  0
 25 29  1  0  0  0  0
 25 61  1  0  0  0  0
 25 62  1  0  0  0  0
 26 28  1  0  0  0  0
 26 63  1  0  0  0  0
 27 31  1  0  0  0  0
 27 65  1  0  0  0  0
 27 66  1  0  0  0  0
 28 30  1  0  0  0  0
 28 67  1  0  0  0  0
 28 68  1  0  0  0  0
 29 30  2  0  0  0  0
 29 69  1  0  0  0  0
 30 70  1  0  0  0  0
 31 71  1  0  0  0  0
 31 72  1  0  0  0  0
 31 73  1  0  0  0  0
M  END
> <PUBCHEM_COMPOUND_CID>
87352860

> <PUBCHEM_COMPOUND_CANONICALIZED>
1

> <PUBCHEM_CACTVS_COMPLEXITY>
504

> <PUBCHEM_CACTVS_HBOND_ACCEPTOR>
7

> <PUBCHEM_CACTVS_HBOND_DONOR>
4

> <PUBCHEM_CACTVS_ROTATABLE_BOND>
21

> <PUBCHEM_CACTVS_SUBSKEYS>
AAADcfB4OAAAAAAAAAAAAAAAAAAAAAAAAAAAAAAAAAAAAAAAAAAAGgAACAAACBSggAICCAAABgCIACjSiAIAAAAgAAAICAFAAAgBEBYAAQACQAAFoAALAAPK7KzAAAAAAAAAAAAAAAAAAAAAAAAAAAAAAA==

> <PUBCHEM_IUPAC_OPENEYE_NAME>
[(2R,3R,4S,5R)-2,3,4,5-tetrahydroxy-6-oxo-hexyl] (9Z,12Z)-octadeca-9,12-dienoate

> <PUBCHEM_IUPAC_CAS_NAME>
(9Z,12Z)-octadeca-9,12-dienoic acid [(2R,3R,4S,5R)-2,3,4,5-tetrahydroxy-6-oxohexyl] ester

> <PUBCHEM_IUPAC_NAME_MARKUP>
[(2<I>R</I>,3<I>R</I>,4<I>S</I>,5<I>R</I>)-2,3,4,5-tetrahydroxy-6-oxohexyl] (9<I>Z</I>,12<I>Z</I>)-octadeca-9,12-dienoate

> <PUBCHEM_IUPAC_NAME>
[(2R,3R,4S,5R)-2,3,4,5-tetrahydroxy-6-oxohexyl] (9Z,12Z)-octadeca-9,12-dienoate

> <PUBCHEM_IUPAC_SYSTEMATIC_NAME>
[(2R,3R,4S,5R)-2,3,4,5-tetrakis(oxidanyl)-6-oxidanylidene-hexyl] (9Z,12Z)-octadeca-9,12-dienoate

> <PUBCHEM_IUPAC_TRADITIONAL_NAME>
(9Z,12Z)-octadeca-9,12-dienoic acid [(2R,3R,4S,5R)-2,3,4,5-tetrahydroxy-6-keto-hexyl] ester

> <PUBCHEM_IUPAC_INCHI>
InChI=1S/C24H42O7/c1-2-3-4-5-6-7-8-9-10-11-12-13-14-15-16-17-22(28)31-19-21(27)24(30)23(29)20(26)18-25/h6-7,9-10,18,20-21,23-24,26-27,29-30H,2-5,8,11-17,19H2,1H3/b7-6-,10-9-/t20-,21+,23+,24+/m0/s1

> <PUBCHEM_IUPAC_INCHIKEY>
UOFPMBSBGCXQPI-LFJVKHDZSA-N

> <PUBCHEM_XLOGP3_AA>
3.9

> <PUBCHEM_EXACT_MASS>
442.29305367

> <PUBCHEM_MOLECULAR_FORMULA>
C24H42O7

> <PUBCHEM_MOLECULAR_WEIGHT>
442.6

> <PUBCHEM_OPENEYE_CAN_SMILES>
CCCCCC=CCC=CCCCCCCCC(=O)OCC(C(C(C(C=O)O)O)O)O

> <PUBCHEM_OPENEYE_ISO_SMILES>
CCCCC/C=C\C/C=C\CCCCCCCC(=O)OC[C@H]([C@H]([C@@H]([C@H](C=O)O)O)O)O

> <PUBCHEM_CACTVS_TPSA>
124

> <PUBCHEM_MONOISOTOPIC_WEIGHT>
442.29305367

> <PUBCHEM_TOTAL_CHARGE>
0

> <PUBCHEM_HEAVY_ATOM_COUNT>
31

> <PUBCHEM_ATOM_DEF_STEREO_COUNT>
4

> <PUBCHEM_ATOM_UDEF_STEREO_COUNT>
0

> <PUBCHEM_BOND_DEF_STEREO_COUNT>
2

> <PUBCHEM_BOND_UDEF_STEREO_COUNT>
0

> <PUBCHEM_ISOTOPIC_ATOM_COUNT>
0

> <PUBCHEM_COMPONENT_COUNT>
1

> <PUBCHEM_CACTVS_TAUTO_COUNT>
-1

> <PUBCHEM_COORDINATE_TYPE>
1
5
255

> <PUBCHEM_BONDANNOTATIONS>
10  2  6
12  3  5
14  4  6
18  5  6

$$$$
