 
  -OEChem-10192104082D

 25 25  0     0  0  0  0  0  0999 V2000
    5.4641    1.3450    0.0000 O   0  0  0  0  0  0  0  0  0  0  0  0
    2.8660   -0.1550    0.0000 O   0  0  0  0  0  0  0  0  0  0  0  0
    8.0622   -0.1550    0.0000 O   0  0  0  0  0  0  0  0  0  0  0  0
    3.7320    1.3450    0.0000 O   0  0  0  0  0  0  0  0  0  0  0  0
    7.1962    1.3450    0.0000 O   0  0  0  0  0  0  0  0  0  0  0  0
    4.5981   -0.1550    0.0000 C   0  0  0  0  0  0  0  0  0  0  0  0
    6.3301   -0.1550    0.0000 C   0  0  0  0  0  0  0  0  0  0  0  0
    5.4641    0.3450    0.0000 C   0  0  0  0  0  0  0  0  0  0  0  0
    4.5981   -1.1550    0.0000 C   0  0  0  0  0  0  0  0  0  0  0  0
    6.3301   -1.1550    0.0000 C   0  0  0  0  0  0  0  0  0  0  0  0
    5.4641   -1.6550    0.0000 C   0  0  0  0  0  0  0  0  0  0  0  0
    3.7320    0.3450    0.0000 C   0  0  0  0  0  0  0  0  0  0  0  0
    7.1962    0.3450    0.0000 C   0  0  0  0  0  0  0  0  0  0  0  0
    2.0000    0.3450    0.0000 C   0  0  0  0  0  0  0  0  0  0  0  0
    8.9282    0.3450    0.0000 C   0  0  0  0  0  0  0  0  0  0  0  0
    4.0611   -1.4650    0.0000 H   0  0  0  0  0  0  0  0  0  0  0  0
    6.8671   -1.4650    0.0000 H   0  0  0  0  0  0  0  0  0  0  0  0
    5.4641   -2.2750    0.0000 H   0  0  0  0  0  0  0  0  0  0  0  0
    6.0010    1.6550    0.0000 H   0  0  0  0  0  0  0  0  0  0  0  0
    2.3100    0.8819    0.0000 H   0  0  0  0  0  0  0  0  0  0  0  0
    1.4631    0.6550    0.0000 H   0  0  0  0  0  0  0  0  0  0  0  0
    1.6900   -0.1919    0.0000 H   0  0  0  0  0  0  0  0  0  0  0  0
    9.2382   -0.1919    0.0000 H   0  0  0  0  0  0  0  0  0  0  0  0
    9.4651    0.6550    0.0000 H   0  0  0  0  0  0  0  0  0  0  0  0
    8.6182    0.8819    0.0000 H   0  0  0  0  0  0  0  0  0  0  0  0
  1  8  1  0  0  0  0
  1 19  1  0  0  0  0
  2 12  1  0  0  0  0
  2 14  1  0  0  0  0
  3 13  1  0  0  0  0
  3 15  1  0  0  0  0
  4 12  2  0  0  0  0
  5 13  2  0  0  0  0
  6  8  2  0  0  0  0
  6  9  1  0  0  0  0
  6 12  1  0  0  0  0
  7  8  1  0  0  0  0
  7 10  2  0  0  0  0
  7 13  1  0  0  0  0
  9 11  2  0  0  0  0
  9 16  1  0  0  0  0
 10 11  1  0  0  0  0
 10 17  1  0  0  0  0
 11 18  1  0  0  0  0
 14 20  1  0  0  0  0
 14 21  1  0  0  0  0
 14 22  1  0  0  0  0
 15 23  1  0  0  0  0
 15 24  1  0  0  0  0
 15 25  1  0  0  0  0
M  END
> <PUBCHEM_COMPOUND_CID>
10889156

> <PUBCHEM_COMPOUND_CANONICALIZED>
1

> <PUBCHEM_CACTVS_COMPLEXITY>
226

> <PUBCHEM_CACTVS_HBOND_ACCEPTOR>
5

> <PUBCHEM_CACTVS_HBOND_DONOR>
1

> <PUBCHEM_CACTVS_ROTATABLE_BOND>
4

> <PUBCHEM_CACTVS_SUBSKEYS>
AAADccBwOAAAAAAAAAAAAAAAAAAAAAAAAAAwAAAAAAAAAAABAAAAGgAACAAADASAmAIyDoAABgCIAiDSCAACAAAkIAAIiAEECMgIJzaCNRqAcUAl4BEIuYeI7miOAAACAAAIAAAAAAQAABAAAAAAAAAAAA==

> <PUBCHEM_IUPAC_OPENEYE_NAME>
dimethyl 2-hydroxybenzene-1,3-dicarboxylate

> <PUBCHEM_IUPAC_CAS_NAME>
2-hydroxybenzene-1,3-dicarboxylic acid dimethyl ester

> <PUBCHEM_IUPAC_NAME_MARKUP>
dimethyl 2-hydroxybenzene-1,3-dicarboxylate

> <PUBCHEM_IUPAC_NAME>
dimethyl 2-hydroxybenzene-1,3-dicarboxylate

> <PUBCHEM_IUPAC_SYSTEMATIC_NAME>
dimethyl 2-oxidanylbenzene-1,3-dicarboxylate

> <PUBCHEM_IUPAC_TRADITIONAL_NAME>
2-hydroxybenzene-1,3-dicarboxylic acid dimethyl ester

> <PUBCHEM_IUPAC_INCHI>
InChI=1S/C10H10O5/c1-14-9(12)6-4-3-5-7(8(6)11)10(13)15-2/h3-5,11H,1-2H3

> <PUBCHEM_IUPAC_INCHIKEY>
HJZOAEXBCOTMIU-UHFFFAOYSA-N

> <PUBCHEM_XLOGP3>
1.8

> <PUBCHEM_EXACT_MASS>
210.05282342

> <PUBCHEM_MOLECULAR_FORMULA>
C10H10O5

> <PUBCHEM_MOLECULAR_WEIGHT>
210.18

> <PUBCHEM_OPENEYE_CAN_SMILES>
COC(=O)C1=C(C(=CC=C1)C(=O)OC)O

> <PUBCHEM_OPENEYE_ISO_SMILES>
COC(=O)C1=C(C(=CC=C1)C(=O)OC)O

> <PUBCHEM_CACTVS_TPSA>
72.8

> <PUBCHEM_MONOISOTOPIC_WEIGHT>
210.05282342

> <PUBCHEM_TOTAL_CHARGE>
0

> <PUBCHEM_HEAVY_ATOM_COUNT>
15

> <PUBCHEM_ATOM_DEF_STEREO_COUNT>
0

> <PUBCHEM_ATOM_UDEF_STEREO_COUNT>
0

> <PUBCHEM_BOND_DEF_STEREO_COUNT>
0

> <PUBCHEM_BOND_UDEF_STEREO_COUNT>
0

> <PUBCHEM_ISOTOPIC_ATOM_COUNT>
0

> <PUBCHEM_COMPONENT_COUNT>
1

> <PUBCHEM_CACTVS_TAUTO_COUNT>
-1

> <PUBCHEM_COORDINATE_TYPE>
1
5
255

> <PUBCHEM_BONDANNOTATIONS>
10  11  8
6  8  8
6  9  8
7  10  8
7  8  8
9  11  8

$$$$
