 
  -OEChem-10192103572D

 40 41  0     1  0  0  0  0  0999 V2000
    5.0009   -2.7172    0.0000 P   0  3  0  0  0  0  0  0  0  0  0  0
    4.5411    0.7655    0.0000 O   0  0  0  0  0  0  0  0  0  0  0  0
    4.4131   -1.9081    0.0000 O   0  0  0  0  0  0  0  0  0  0  0  0
    4.5942   -3.6307    0.0000 O   0  0  0  0  0  0  0  0  0  0  0  0
    5.4641    2.3533    0.0000 O   0  0  0  0  0  0  0  0  0  0  0  0
    3.7320    5.3533    0.0000 O   0  0  0  0  0  0  0  0  0  0  0  0
    5.9954   -2.6126    0.0000 O   0  0  0  0  0  0  0  0  0  0  0  0
    3.7320    2.3533    0.0000 N   0  0  0  0  0  0  0  0  0  0  0  0
    4.5981    3.8533    0.0000 N   0  0  0  0  0  0  0  0  0  0  0  0
    3.7320    1.3533    0.0000 C   0  0  1  0  0  0  0  0  0  0  0  0
    4.2320   -0.1856    0.0000 C   0  0  1  0  0  0  0  0  0  0  0  0
    2.9230    0.7655    0.0000 C   0  0  0  0  0  0  0  0  0  0  0  0
    3.2320   -0.1856    0.0000 C   0  0  0  0  0  0  0  0  0  0  0  0
    4.8198   -0.9946    0.0000 C   0  0  0  0  0  0  0  0  0  0  0  0
    2.8660    2.8533    0.0000 C   0  0  0  0  0  0  0  0  0  0  0  0
    4.5981    2.8533    0.0000 C   0  0  0  0  0  0  0  0  0  0  0  0
    2.8660    3.8533    0.0000 C   0  0  0  0  0  0  0  0  0  0  0  0
    3.7320    4.3533    0.0000 C   0  0  0  0  0  0  0  0  0  0  0  0
    2.0000    4.3533    0.0000 C   0  0  0  0  0  0  0  0  0  0  0  0
    5.1819   -4.4397    0.0000 C   0  0  0  0  0  0  0  0  0  0  0  0
    4.7752   -5.3533    0.0000 C   0  0  0  0  0  0  0  0  0  0  0  0
    6.1765   -4.3352    0.0000 C   0  0  0  0  0  0  0  0  0  0  0  0
    4.2845    1.6347    0.0000 H   0  0  0  0  0  0  0  0  0  0  0  0
    4.8444   -0.0886    0.0000 H   0  0  0  0  0  0  0  0  0  0  0  0
    2.3334    0.9571    0.0000 H   0  0  0  0  0  0  0  0  0  0  0  0
    2.8676   -0.6872    0.0000 H   0  0  0  0  0  0  0  0  0  0  0  0
    5.3338   -1.3413    0.0000 H   0  0  0  0  0  0  0  0  0  0  0  0
    5.2505   -0.5486    0.0000 H   0  0  0  0  0  0  0  0  0  0  0  0
    2.3291    2.5433    0.0000 H   0  0  0  0  0  0  0  0  0  0  0  0
    5.1350    4.1633    0.0000 H   0  0  0  0  0  0  0  0  0  0  0  0
    2.3100    4.8902    0.0000 H   0  0  0  0  0  0  0  0  0  0  0  0
    1.4631    4.6633    0.0000 H   0  0  0  0  0  0  0  0  0  0  0  0
    1.6900    3.8163    0.0000 H   0  0  0  0  0  0  0  0  0  0  0  0
    5.4341   -3.8733    0.0000 H   0  0  0  0  0  0  0  0  0  0  0  0
    4.2088   -5.1011    0.0000 H   0  0  0  0  0  0  0  0  0  0  0  0
    4.5230   -5.9197    0.0000 H   0  0  0  0  0  0  0  0  0  0  0  0
    5.3416   -5.6054    0.0000 H   0  0  0  0  0  0  0  0  0  0  0  0
    6.2413   -4.9518    0.0000 H   0  0  0  0  0  0  0  0  0  0  0  0
    6.7931   -4.2704    0.0000 H   0  0  0  0  0  0  0  0  0  0  0  0
    6.1116   -3.7186    0.0000 H   0  0  0  0  0  0  0  0  0  0  0  0
  1  3  1  0  0  0  0
  1  4  1  0  0  0  0
  1  7  2  0  0  0  0
  2 10  1  0  0  0  0
  2 11  1  0  0  0  0
  3 14  1  0  0  0  0
  4 20  1  0  0  0  0
  5 16  2  0  0  0  0
  6 18  2  0  0  0  0
 10  8  1  6  0  0  0
  8 15  1  0  0  0  0
  8 16  1  0  0  0  0
  9 16  1  0  0  0  0
  9 18  1  0  0  0  0
  9 30  1  0  0  0  0
 10 12  1  0  0  0  0
 10 23  1  0  0  0  0
 11 13  1  0  0  0  0
 11 14  1  6  0  0  0
 11 24  1  0  0  0  0
 12 13  2  0  0  0  0
 12 25  1  0  0  0  0
 13 26  1  0  0  0  0
 14 27  1  0  0  0  0
 14 28  1  0  0  0  0
 15 17  2  0  0  0  0
 15 29  1  0  0  0  0
 17 18  1  0  0  0  0
 17 19  1  0  0  0  0
 19 31  1  0  0  0  0
 19 32  1  0  0  0  0
 19 33  1  0  0  0  0
 20 21  1  0  0  0  0
 20 22  1  0  0  0  0
 20 34  1  0  0  0  0
 21 35  1  0  0  0  0
 21 36  1  0  0  0  0
 21 37  1  0  0  0  0
 22 38  1  0  0  0  0
 22 39  1  0  0  0  0
 22 40  1  0  0  0  0
M  CHG  1   1   1
M  END
> <PUBCHEM_COMPOUND_CID>
6335155

> <PUBCHEM_COMPOUND_CANONICALIZED>
1

> <PUBCHEM_CACTVS_COMPLEXITY>
545

> <PUBCHEM_CACTVS_HBOND_ACCEPTOR>
6

> <PUBCHEM_CACTVS_HBOND_DONOR>
1

> <PUBCHEM_CACTVS_ROTATABLE_BOND>
6

> <PUBCHEM_CACTVS_SUBSKEYS>
AAADceBzOAIAAAAAAAAAAAAAAAAAAQAAAAAgAAAAAAAAAAAAAAAAHgAQACAADBThgAYDAAPABRCIQiFWUICAAAAgAAAICAEIAEiBBAAAIQAOEAAIRyIKIMIAAAAAAAAAAAAAAAAAAAAAAAAAAAAAAAAAAA==

> <PUBCHEM_IUPAC_OPENEYE_NAME>
isopropoxy-[[(2S,5R)-5-(5-methyl-2,4-dioxo-pyrimidin-1-yl)-2,5-dihydrofuran-2-yl]methoxy]-oxo-phosphonium

> <PUBCHEM_IUPAC_CAS_NAME>
[(2S,5R)-5-(5-methyl-2,4-dioxo-1-pyrimidinyl)-2,5-dihydrofuran-2-yl]methoxy-oxo-propan-2-yloxyphosphonium

> <PUBCHEM_IUPAC_NAME_MARKUP>
[(2<I>S</I>,5<I>R</I>)-5-(5-methyl-2,4-dioxopyrimidin-1-yl)-2,5-dihydrofuran-2-yl]methoxy-oxo-propan-2-yloxyphosphanium

> <PUBCHEM_IUPAC_NAME>
[(2S,5R)-5-(5-methyl-2,4-dioxopyrimidin-1-yl)-2,5-dihydrofuran-2-yl]methoxy-oxo-propan-2-yloxyphosphanium

> <PUBCHEM_IUPAC_SYSTEMATIC_NAME>
[(2S,5R)-5-[5-methyl-2,4-bis(oxidanylidene)pyrimidin-1-yl]-2,5-dihydrofuran-2-yl]methoxy-oxidanylidene-propan-2-yloxy-phosphanium

> <PUBCHEM_IUPAC_TRADITIONAL_NAME>
[(2S,5R)-5-(2,4-diketo-5-methyl-pyrimidin-1-yl)-2,5-dihydrofuran-2-yl]methoxy-isopropoxy-keto-phosphonium

> <PUBCHEM_IUPAC_INCHI>
InChI=1S/C13H17N2O6P/c1-8(2)21-22(18)19-7-10-4-5-11(20-10)15-6-9(3)12(16)14-13(15)17/h4-6,8,10-11H,7H2,1-3H3/p+1/t10-,11+/m0/s1

> <PUBCHEM_IUPAC_INCHIKEY>
CIEUCZSHJLLZHB-WDEREUQCSA-O

> <PUBCHEM_XLOGP3>
0.4

> <PUBCHEM_EXACT_MASS>
329.09024830

> <PUBCHEM_MOLECULAR_FORMULA>
C13H18N2O6P+

> <PUBCHEM_MOLECULAR_WEIGHT>
329.27

> <PUBCHEM_OPENEYE_CAN_SMILES>
CC1=CN(C(=O)NC1=O)C2C=CC(O2)CO[P+](=O)OC(C)C

> <PUBCHEM_OPENEYE_ISO_SMILES>
CC1=CN(C(=O)NC1=O)[C@H]2C=C[C@H](O2)CO[P+](=O)OC(C)C

> <PUBCHEM_CACTVS_TPSA>
94.2

> <PUBCHEM_MONOISOTOPIC_WEIGHT>
329.09024830

> <PUBCHEM_TOTAL_CHARGE>
1

> <PUBCHEM_HEAVY_ATOM_COUNT>
22

> <PUBCHEM_ATOM_DEF_STEREO_COUNT>
2

> <PUBCHEM_ATOM_UDEF_STEREO_COUNT>
0

> <PUBCHEM_BOND_DEF_STEREO_COUNT>
0

> <PUBCHEM_BOND_UDEF_STEREO_COUNT>
0

> <PUBCHEM_ISOTOPIC_ATOM_COUNT>
0

> <PUBCHEM_COMPONENT_COUNT>
1

> <PUBCHEM_CACTVS_TAUTO_COUNT>
-1

> <PUBCHEM_COORDINATE_TYPE>
1
5
255

> <PUBCHEM_BONDANNOTATIONS>
11  14  6
15  17  8
17  18  8
10  8  6
8  15  8
8  16  8
9  16  8
9  18  8

$$$$
