 
  -OEChem-10192104022D

 31 33  0     1  0  0  0  0  0999 V2000
    8.7465    0.4969    0.0000 O   0  0  0  0  0  0  0  0  0  0  0  0
    8.0217   -1.1311    0.0000 O   0  0  0  0  0  0  0  0  0  0  0  0
    8.9328    2.2691    0.0000 O   0  0  0  0  0  0  0  0  0  0  0  0
    3.7243   -2.0677    0.0000 O   0  0  0  0  0  0  0  0  0  0  0  0
    2.3826    1.6186    0.0000 O   0  0  0  0  0  0  0  0  0  0  0  0
    5.4554   -2.0103    0.0000 O   0  0  0  0  0  0  0  0  0  0  0  0
    3.7456    2.6874    0.0000 O   0  0  0  0  0  0  0  0  0  0  0  0
    5.3250    0.0702    0.0000 C   0  0  3  0  0  0  0  0  0  0  0  0
    4.9830    1.0099    0.0000 C   0  0  3  0  0  0  0  0  0  0  0  0
    6.6977    0.6622    0.0000 C   0  0  3  0  0  0  0  0  0  0  0  0
    6.9565    1.6281    0.0000 C   0  0  3  0  0  0  0  0  0  0  0  0
    4.5401   -0.5398    0.0000 C   0  0  3  0  0  0  0  0  0  0  0  0
    3.9896    0.9726    0.0000 C   0  0  3  0  0  0  0  0  0  0  0  0
    6.2199    2.6107    0.0000 C   0  0  0  0  0  0  0  0  0  0  0  0
    3.7164    0.0168    0.0000 C   0  0  0  0  0  0  0  0  0  0  0  0
    7.9694   -0.1324    0.0000 C   0  0  0  0  0  0  0  0  0  0  0  0
    8.3882    1.4304    0.0000 C   0  0  0  0  0  0  0  0  0  0  0  0
    4.5732   -1.5393    0.0000 C   0  0  0  0  0  0  0  0  0  0  0  0
    3.3726    1.7595    0.0000 C   0  0  0  0  0  0  0  0  0  0  0  0
    5.6405   -0.4635    0.0000 H   0  0  0  0  0  0  0  0  0  0  0  0
    4.8778    1.6209    0.0000 H   0  0  0  0  0  0  0  0  0  0  0  0
    7.2000    1.0256    0.0000 H   0  0  0  0  0  0  0  0  0  0  0  0
    7.2712    2.1623    0.0000 H   0  0  0  0  0  0  0  0  0  0  0  0
    5.1014   -0.8030    0.0000 H   0  0  0  0  0  0  0  0  0  0  0  0
    4.2504    1.5351    0.0000 H   0  0  0  0  0  0  0  0  0  0  0  0
    6.5377    3.1431    0.0000 H   0  0  0  0  0  0  0  0  0  0  0  0
    5.6068    2.7027    0.0000 H   0  0  0  0  0  0  0  0  0  0  0  0
    3.1415    0.2489    0.0000 H   0  0  0  0  0  0  0  0  0  0  0  0
    3.4252   -0.5306    0.0000 H   0  0  0  0  0  0  0  0  0  0  0  0
    3.7448   -2.6874    0.0000 H   0  0  0  0  0  0  0  0  0  0  0  0
    2.0000    2.1066    0.0000 H   0  0  0  0  0  0  0  0  0  0  0  0
  1 16  1  0  0  0  0
  1 17  1  0  0  0  0
  2 16  2  0  0  0  0
  3 17  2  0  0  0  0
  4 18  1  0  0  0  0
  4 30  1  0  0  0  0
  5 19  1  0  0  0  0
  5 31  1  0  0  0  0
  6 18  2  0  0  0  0
  7 19  2  0  0  0  0
  8  9  1  0  0  0  0
  8 10  1  0  0  0  0
  8 12  1  0  0  0  0
  8 20  1  0  0  0  0
  9 11  1  0  0  0  0
  9 13  1  0  0  0  0
  9 21  1  0  0  0  0
 10 14  1  0  0  0  0
 10 16  1  0  0  0  0
 10 22  1  0  0  0  0
 11 14  1  0  0  0  0
 11 17  1  0  0  0  0
 11 23  1  0  0  0  0
 12 15  1  0  0  0  0
 12 18  1  0  0  0  0
 12 24  1  0  0  0  0
 13 15  1  0  0  0  0
 13 19  1  0  0  0  0
 13 25  1  0  0  0  0
 14 26  1  0  0  0  0
 14 27  1  0  0  0  0
 15 28  1  0  0  0  0
 15 29  1  0  0  0  0
M  END
> <PUBCHEM_COMPOUND_CID>
87483610

> <PUBCHEM_COMPOUND_CANONICALIZED>
1

> <PUBCHEM_CACTVS_COMPLEXITY>
454

> <PUBCHEM_CACTVS_HBOND_ACCEPTOR>
7

> <PUBCHEM_CACTVS_HBOND_DONOR>
2

> <PUBCHEM_CACTVS_ROTATABLE_BOND>
2

> <PUBCHEM_CACTVS_SUBSKEYS>
AAADccBwOAAAAAAAAAAAAAAAAAAAAYMAAAAkAAAABIAYAAAAAAAAGgAACAAADQCAgAAACAAABgAIAACQCAAAAAAAAAAAAAEAAAAAABIAAAACQAAEAAAAAAGI7viOgAAAAAAAAAAAAAAAAAAAAQAACAAAAA==

> <PUBCHEM_IUPAC_OPENEYE_NAME>
8,10-dioxo-9-oxatricyclo[5.3.1.02,6]undecane-3,5-dicarboxylic acid

> <PUBCHEM_IUPAC_CAS_NAME>
8,10-dioxo-9-oxatricyclo[5.3.1.02,6]undecane-3,5-dicarboxylic acid

> <PUBCHEM_IUPAC_NAME_MARKUP>
8,10-dioxo-9-oxatricyclo[5.3.1.0<SUP>2,6</SUP>]undecane-3,5-dicarboxylic acid

> <PUBCHEM_IUPAC_NAME>
8,10-dioxo-9-oxatricyclo[5.3.1.02,6]undecane-3,5-dicarboxylic acid

> <PUBCHEM_IUPAC_SYSTEMATIC_NAME>
8,10-bis(oxidanylidene)-9-oxatricyclo[5.3.1.02,6]undecane-3,5-dicarboxylic acid

> <PUBCHEM_IUPAC_TRADITIONAL_NAME>
8,10-diketo-9-oxatricyclo[5.3.1.02,6]undecane-3,5-dicarboxylic acid

> <PUBCHEM_IUPAC_INCHI>
InChI=1S/C12H12O7/c13-9(14)3-1-4(10(15)16)8-6-2-5(7(3)8)11(17)19-12(6)18/h3-8H,1-2H2,(H,13,14)(H,15,16)

> <PUBCHEM_IUPAC_INCHIKEY>
XIYOHEJHPORHKY-UHFFFAOYSA-N

> <PUBCHEM_XLOGP3_AA>
-0.6

> <PUBCHEM_EXACT_MASS>
268.05830272

> <PUBCHEM_MOLECULAR_FORMULA>
C12H12O7

> <PUBCHEM_MOLECULAR_WEIGHT>
268.22

> <PUBCHEM_OPENEYE_CAN_SMILES>
C1C2C3C(CC(C3C1C(=O)OC2=O)C(=O)O)C(=O)O

> <PUBCHEM_OPENEYE_ISO_SMILES>
C1C2C3C(CC(C3C1C(=O)OC2=O)C(=O)O)C(=O)O

> <PUBCHEM_CACTVS_TPSA>
118

> <PUBCHEM_MONOISOTOPIC_WEIGHT>
268.05830272

> <PUBCHEM_TOTAL_CHARGE>
0

> <PUBCHEM_HEAVY_ATOM_COUNT>
19

> <PUBCHEM_ATOM_DEF_STEREO_COUNT>
0

> <PUBCHEM_ATOM_UDEF_STEREO_COUNT>
6

> <PUBCHEM_BOND_DEF_STEREO_COUNT>
0

> <PUBCHEM_BOND_UDEF_STEREO_COUNT>
0

> <PUBCHEM_ISOTOPIC_ATOM_COUNT>
0

> <PUBCHEM_COMPONENT_COUNT>
1

> <PUBCHEM_CACTVS_TAUTO_COUNT>
-1

> <PUBCHEM_COORDINATE_TYPE>
1
5
255

> <PUBCHEM_BONDANNOTATIONS>
10  14  3
11  14  3
12  18  3
13  19  3
8  12  3
9  13  3

$$$$
