 
  -OEChem-10192104032D

 25 26  0     1  0  0  0  0  0999 V2000
    6.0604   -0.9642    0.0000 O   0  0  0  0  0  0  0  0  0  0  0  0
    6.3016   -2.7962    0.0000 O   0  0  0  0  0  0  0  0  0  0  0  0
    3.9248    2.2593    0.0000 O   0  0  0  0  0  0  0  0  0  0  0  0
    2.4248    1.3932    0.0000 O   0  0  0  0  0  0  0  0  0  0  0  0
    4.4026   -1.4213    0.0000 C   0  0  3  0  0  0  0  0  0  0  0  0
    3.9248    0.5272    0.0000 C   0  0  3  0  0  0  0  0  0  0  0  0
    4.6614   -0.4554    0.0000 C   0  0  3  0  0  0  0  0  0  0  0  0
    3.3268   -2.4374    0.0000 C   0  0  0  0  0  0  0  0  0  0  0  0
    2.6428   -0.5580    0.0000 C   0  0  0  0  0  0  0  0  0  0  0  0
    2.3420   -2.2637    0.0000 C   0  0  0  0  0  0  0  0  0  0  0  0
    2.0000   -1.3240    0.0000 C   0  0  0  0  0  0  0  0  0  0  0  0
    5.8016   -1.9302    0.0000 C   0  0  0  0  0  0  0  0  0  0  0  0
    3.4248    1.3932    0.0000 C   0  0  0  0  0  0  0  0  0  0  0  0
    4.5282   -2.0285    0.0000 H   0  0  0  0  0  0  0  0  0  0  0  0
    4.4423    0.8688    0.0000 H   0  0  0  0  0  0  0  0  0  0  0  0
    5.0308    0.0426    0.0000 H   0  0  0  0  0  0  0  0  0  0  0  0
    3.0924   -3.0114    0.0000 H   0  0  0  0  0  0  0  0  0  0  0  0
    3.8382   -2.7879    0.0000 H   0  0  0  0  0  0  0  0  0  0  0  0
    2.7653    0.0498    0.0000 H   0  0  0  0  0  0  0  0  0  0  0  0
    2.0841   -0.2892    0.0000 H   0  0  0  0  0  0  0  0  0  0  0  0
    1.7314   -2.3714    0.0000 H   0  0  0  0  0  0  0  0  0  0  0  0
    2.3420   -2.8837    0.0000 H   0  0  0  0  0  0  0  0  0  0  0  0
    1.6015   -0.8491    0.0000 H   0  0  0  0  0  0  0  0  0  0  0  0
    1.4631   -1.6340    0.0000 H   0  0  0  0  0  0  0  0  0  0  0  0
    3.6148    2.7962    0.0000 H   0  0  0  0  0  0  0  0  0  0  0  0
  1  7  1  0  0  0  0
  1 12  1  0  0  0  0
  2 12  2  0  0  0  0
  3 13  1  0  0  0  0
  3 25  1  0  0  0  0
  4 13  2  0  0  0  0
  5  6  1  0  0  0  0
  5  8  1  0  0  0  0
  5 12  1  0  0  0  0
  5 14  1  0  0  0  0
  6  7  1  0  0  0  0
  6 13  1  0  0  0  0
  6 15  1  0  0  0  0
  7  9  1  0  0  0  0
  7 16  1  0  0  0  0
  8 10  1  0  0  0  0
  8 17  1  0  0  0  0
  8 18  1  0  0  0  0
  9 11  1  0  0  0  0
  9 19  1  0  0  0  0
  9 20  1  0  0  0  0
 10 11  1  0  0  0  0
 10 21  1  0  0  0  0
 10 22  1  0  0  0  0
 11 23  1  0  0  0  0
 11 24  1  0  0  0  0
M  END
> <PUBCHEM_COMPOUND_CID>
129925890

> <PUBCHEM_COMPOUND_CANONICALIZED>
1

> <PUBCHEM_CACTVS_COMPLEXITY>
248

> <PUBCHEM_CACTVS_HBOND_ACCEPTOR>
4

> <PUBCHEM_CACTVS_HBOND_DONOR>
1

> <PUBCHEM_CACTVS_ROTATABLE_BOND>
1

> <PUBCHEM_CACTVS_SUBSKEYS>
AAADccBwOAAAAAAAAAAAAAAAAAAAASAAAAAAAAAABgASAAAAAAAAGgAACAAADRSggAIACAAABgAIAACQCAAAAAAAAAAAAAEAAAAAABYAAAACQAAFIAAAAAHLyOCOgAAAAAAAAAAAAAAAAAAAAAAAAAAAAA==

> <PUBCHEM_IUPAC_OPENEYE_NAME>
8-oxo-7-oxabicyclo[4.2.1]nonane-9-carboxylic acid

> <PUBCHEM_IUPAC_CAS_NAME>
8-oxo-7-oxabicyclo[4.2.1]nonane-9-carboxylic acid

> <PUBCHEM_IUPAC_NAME_MARKUP>
8-oxo-7-oxabicyclo[4.2.1]nonane-9-carboxylic acid

> <PUBCHEM_IUPAC_NAME>
8-oxo-7-oxabicyclo[4.2.1]nonane-9-carboxylic acid

> <PUBCHEM_IUPAC_SYSTEMATIC_NAME>
8-oxidanylidene-7-oxabicyclo[4.2.1]nonane-9-carboxylic acid

> <PUBCHEM_IUPAC_TRADITIONAL_NAME>
8-keto-7-oxabicyclo[4.2.1]nonane-9-carboxylic acid

> <PUBCHEM_IUPAC_INCHI>
InChI=1S/C9H12O4/c10-8(11)7-5-3-1-2-4-6(7)13-9(5)12/h5-7H,1-4H2,(H,10,11)

> <PUBCHEM_IUPAC_INCHIKEY>
NVDJNMGMIFEIBJ-UHFFFAOYSA-N

> <PUBCHEM_XLOGP3_AA>
0.8

> <PUBCHEM_EXACT_MASS>
184.07355886

> <PUBCHEM_MOLECULAR_FORMULA>
C9H12O4

> <PUBCHEM_MOLECULAR_WEIGHT>
184.19

> <PUBCHEM_OPENEYE_CAN_SMILES>
C1CCC2C(C(C1)C(=O)O2)C(=O)O

> <PUBCHEM_OPENEYE_ISO_SMILES>
C1CCC2C(C(C1)C(=O)O2)C(=O)O

> <PUBCHEM_CACTVS_TPSA>
63.6

> <PUBCHEM_MONOISOTOPIC_WEIGHT>
184.07355886

> <PUBCHEM_TOTAL_CHARGE>
0

> <PUBCHEM_HEAVY_ATOM_COUNT>
13

> <PUBCHEM_ATOM_DEF_STEREO_COUNT>
0

> <PUBCHEM_ATOM_UDEF_STEREO_COUNT>
3

> <PUBCHEM_BOND_DEF_STEREO_COUNT>
0

> <PUBCHEM_BOND_UDEF_STEREO_COUNT>
0

> <PUBCHEM_ISOTOPIC_ATOM_COUNT>
0

> <PUBCHEM_COMPONENT_COUNT>
1

> <PUBCHEM_CACTVS_TAUTO_COUNT>
-1

> <PUBCHEM_COORDINATE_TYPE>
1
5
255

> <PUBCHEM_BONDANNOTATIONS>
5  8  3
6  13  3
7  9  3

$$$$
