 
  -OEChem-10192104252D

 17 17  0     0  0  0  0  0  0999 V2000
    6.0916   -0.0106    0.0000 O   0  0  0  0  0  0  0  0  0  0  0  0
    5.2812   -1.6934    0.0000 O   0  0  0  0  0  0  0  0  0  0  0  0
    3.4603    2.0878    0.0000 O   0  0  0  0  0  0  0  0  0  0  0  0
    2.0000   -0.9445    0.0000 O   0  0  0  0  0  0  0  0  0  0  0  0
    5.0916   -0.0106    0.0000 C   0  0  0  0  0  0  0  0  0  0  0  0
    4.6577   -0.9116    0.0000 C   0  0  0  0  0  0  0  0  0  0  0  0
    4.6577    0.8904    0.0000 C   0  0  0  0  0  0  0  0  0  0  0  0
    3.6828    1.1129    0.0000 C   0  0  0  0  0  0  0  0  0  0  0  0
    3.6828   -1.1341    0.0000 C   0  0  0  0  0  0  0  0  0  0  0  0
    2.9010    0.4894    0.0000 C   0  0  0  0  0  0  0  0  0  0  0  0
    2.9010   -0.5106    0.0000 C   0  0  0  0  0  0  0  0  0  0  0  0
    5.0443    1.3751    0.0000 H   0  0  0  0  0  0  0  0  0  0  0  0
    3.5448   -1.7386    0.0000 H   0  0  0  0  0  0  0  0  0  0  0  0
    2.3424    0.7584    0.0000 H   0  0  0  0  0  0  0  0  0  0  0  0
    6.4016    0.5263    0.0000 H   0  0  0  0  0  0  0  0  0  0  0  0
    5.0547   -2.2706    0.0000 H   0  0  0  0  0  0  0  0  0  0  0  0
    2.8678    2.2706    0.0000 H   0  0  0  0  0  0  0  0  0  0  0  0
  1  5  1  0  0  0  0
  1 15  1  0  0  0  0
  2  6  1  0  0  0  0
  2 16  1  0  0  0  0
  3  8  1  0  0  0  0
  3 17  1  0  0  0  0
  4 11  2  0  0  0  0
  5  6  1  0  0  0  0
  5  7  2  0  0  0  0
  6  9  2  0  0  0  0
  7  8  1  0  0  0  0
  7 12  1  0  0  0  0
  8 10  2  0  0  0  0
  9 11  1  0  0  0  0
  9 13  1  0  0  0  0
 10 11  1  0  0  0  0
 10 14  1  0  0  0  0
M  END
> <PUBCHEM_COMPOUND_CID>
130030099

> <PUBCHEM_COMPOUND_CANONICALIZED>
1

> <PUBCHEM_CACTVS_COMPLEXITY>
283

> <PUBCHEM_CACTVS_HBOND_ACCEPTOR>
4

> <PUBCHEM_CACTVS_HBOND_DONOR>
3

> <PUBCHEM_CACTVS_ROTATABLE_BOND>
0

> <PUBCHEM_CACTVS_SUBSKEYS>
AAADcYBgOAAAAAAAAAAAAAAAAAAAAAAAAAAAAAAABAAAAAAAAAAAGgAACAAACASAgAAAAAAAAgCIAKBSAAAAAAAgIAAACAAAAEgJBAAAAQAAEAAAAAAJkQIAAAAAAAAAAAAAAAAAAAAAAAAAAAAAAAAAAA==

> <PUBCHEM_IUPAC_OPENEYE_NAME>
3,4,6-trihydroxycyclohepta-2,4,6-trien-1-one

> <PUBCHEM_IUPAC_CAS_NAME>
3,4,6-trihydroxy-1-cyclohepta-2,4,6-trienone

> <PUBCHEM_IUPAC_NAME_MARKUP>
3,4,6-trihydroxycyclohepta-2,4,6-trien-1-one

> <PUBCHEM_IUPAC_NAME>
3,4,6-trihydroxycyclohepta-2,4,6-trien-1-one

> <PUBCHEM_IUPAC_SYSTEMATIC_NAME>
3,4,6-tris(oxidanyl)cyclohepta-2,4,6-trien-1-one

> <PUBCHEM_IUPAC_TRADITIONAL_NAME>
3,4,6-trihydroxycyclohepta-2,4,6-trien-1-one

> <PUBCHEM_IUPAC_INCHI>
InChI=1S/C7H6O4/c8-4-1-5(9)3-7(11)6(10)2-4/h1-3,8,10-11H

> <PUBCHEM_IUPAC_INCHIKEY>
QWNOJIUSSAKZMW-UHFFFAOYSA-N

> <PUBCHEM_XLOGP3_AA>
-0.3

> <PUBCHEM_EXACT_MASS>
154.02660867

> <PUBCHEM_MOLECULAR_FORMULA>
C7H6O4

> <PUBCHEM_MOLECULAR_WEIGHT>
154.12

> <PUBCHEM_OPENEYE_CAN_SMILES>
C1=C(C=C(C(=CC1=O)O)O)O

> <PUBCHEM_OPENEYE_ISO_SMILES>
C1=C(C=C(C(=CC1=O)O)O)O

> <PUBCHEM_CACTVS_TPSA>
77.8

> <PUBCHEM_MONOISOTOPIC_WEIGHT>
154.02660867

> <PUBCHEM_TOTAL_CHARGE>
0

> <PUBCHEM_HEAVY_ATOM_COUNT>
11

> <PUBCHEM_ATOM_DEF_STEREO_COUNT>
0

> <PUBCHEM_ATOM_UDEF_STEREO_COUNT>
0

> <PUBCHEM_BOND_DEF_STEREO_COUNT>
0

> <PUBCHEM_BOND_UDEF_STEREO_COUNT>
0

> <PUBCHEM_ISOTOPIC_ATOM_COUNT>
0

> <PUBCHEM_COMPONENT_COUNT>
1

> <PUBCHEM_CACTVS_TAUTO_COUNT>
-1

> <PUBCHEM_COORDINATE_TYPE>
1
5
255

> <PUBCHEM_BONDANNOTATIONS>
10  11  8
5  6  8
5  7  8
6  9  8
7  8  8
8  10  8
9  11  8

$$$$
