 
  -OEChem-10192104062D

 79 82  0     1  0  0  0  0  0999 V2000
    4.5981    0.0209    0.0000 O   0  0  0  0  0  0  0  0  0  0  0  0
    6.3301    0.0209    0.0000 O   0  0  0  0  0  0  0  0  0  0  0  0
    8.0622    0.0209    0.0000 O   0  0  0  0  0  0  0  0  0  0  0  0
    4.5981   -2.9791    0.0000 O   0  0  0  0  0  0  0  0  0  0  0  0
    6.3301   -1.9791    0.0000 O   0  0  0  0  0  0  0  0  0  0  0  0
    2.8660   -1.9791    0.0000 O   0  0  0  0  0  0  0  0  0  0  0  0
   10.6603    1.5209    0.0000 O   0  0  0  0  0  0  0  0  0  0  0  0
    2.0000   -0.4791    0.0000 O   0  0  0  0  0  0  0  0  0  0  0  0
    2.8660    1.0209    0.0000 O   0  0  0  0  0  0  0  0  0  0  0  0
   11.5644    0.0240    0.0000 O   0  0  0  0  0  0  0  0  0  0  0  0
    4.5981    3.0209    0.0000 O   0  0  0  0  0  0  0  0  0  0  0  0
    9.8063   -3.0484    0.0000 O   0  0  0  0  0  0  0  0  0  0  0  0
    4.5981   -1.9791    0.0000 C   0  0  3  0  0  0  0  0  0  0  0  0
    5.4641   -1.4791    0.0000 C   0  0  3  0  0  0  0  0  0  0  0  0
    3.7320   -1.4791    0.0000 C   0  0  3  0  0  0  0  0  0  0  0  0
    8.9282    1.5209    0.0000 C   0  0  3  0  0  0  0  0  0  0  0  0
    5.4641   -0.4791    0.0000 C   0  0  3  0  0  0  0  0  0  0  0  0
    8.0622    1.0209    0.0000 C   0  0  3  0  0  0  0  0  0  0  0  0
    3.7320   -0.4791    0.0000 C   0  0  3  0  0  0  0  0  0  0  0  0
    7.1962    1.5209    0.0000 C   0  0  0  0  0  0  0  0  0  0  0  0
    8.9282    2.5209    0.0000 C   0  0  0  0  0  0  0  0  0  0  0  0
    9.7942    1.0209    0.0000 C   0  0  0  0  0  0  0  0  0  0  0  0
    6.3301    1.0209    0.0000 C   0  0  0  0  0  0  0  0  0  0  0  0
    9.7942    0.0209    0.0000 C   0  0  0  0  0  0  0  0  0  0  0  0
    8.9282   -0.4791    0.0000 C   0  0  0  0  0  0  0  0  0  0  0  0
    2.8660    0.0209    0.0000 C   0  0  0  0  0  0  0  0  0  0  0  0
    7.1962    2.5209    0.0000 C   0  0  0  0  0  0  0  0  0  0  0  0
    8.0622    3.0209    0.0000 C   0  0  0  0  0  0  0  0  0  0  0  0
    5.4641    1.5209    0.0000 C   0  0  0  0  0  0  0  0  0  0  0  0
   10.7042   -0.4860    0.0000 C   0  0  0  0  0  0  0  0  0  0  0  0
    8.9121   -1.5206    0.0000 C   0  0  0  0  0  0  0  0  0  0  0  0
   10.7123   -1.5276    0.0000 C   0  0  0  0  0  0  0  0  0  0  0  0
    6.3301    3.0209    0.0000 C   0  0  0  0  0  0  0  0  0  0  0  0
    5.4641    2.5209    0.0000 C   0  0  0  0  0  0  0  0  0  0  0  0
    9.8102   -2.0484    0.0000 C   0  0  0  0  0  0  0  0  0  0  0  0
    8.0622    4.0209    0.0000 C   0  0  0  0  0  0  0  0  0  0  0  0
   11.5802   -2.0242    0.0000 C   0  0  0  0  0  0  0  0  0  0  0  0
    7.1962    4.5209    0.0000 C   0  0  0  0  0  0  0  0  0  0  0  0
    8.9282    4.5209    0.0000 C   0  0  0  0  0  0  0  0  0  0  0  0
   11.5841   -3.0242    0.0000 C   0  0  0  0  0  0  0  0  0  0  0  0
   12.4520   -3.5209    0.0000 C   0  0  0  0  0  0  0  0  0  0  0  0
   12.4559   -4.5209    0.0000 C   0  0  0  0  0  0  0  0  0  0  0  0
   13.3161   -3.0176    0.0000 C   0  0  0  0  0  0  0  0  0  0  0  0
    4.0611   -2.2891    0.0000 H   0  0  0  0  0  0  0  0  0  0  0  0
    5.4641   -2.0991    0.0000 H   0  0  0  0  0  0  0  0  0  0  0  0
    3.1951   -1.1691    0.0000 H   0  0  0  0  0  0  0  0  0  0  0  0
    9.4651    1.8309    0.0000 H   0  0  0  0  0  0  0  0  0  0  0  0
    5.4641    0.1409    0.0000 H   0  0  0  0  0  0  0  0  0  0  0  0
    7.5252    0.7109    0.0000 H   0  0  0  0  0  0  0  0  0  0  0  0
    3.7320    0.1409    0.0000 H   0  0  0  0  0  0  0  0  0  0  0  0
    9.5388    2.4132    0.0000 H   0  0  0  0  0  0  0  0  0  0  0  0
    9.1403    3.1035    0.0000 H   0  0  0  0  0  0  0  0  0  0  0  0
    7.7331    2.8309    0.0000 H   0  0  0  0  0  0  0  0  0  0  0  0
    5.1350   -3.2891    0.0000 H   0  0  0  0  0  0  0  0  0  0  0  0
    6.8671   -1.6691    0.0000 H   0  0  0  0  0  0  0  0  0  0  0  0
    2.8660   -2.5991    0.0000 H   0  0  0  0  0  0  0  0  0  0  0  0
    7.5252    2.7109    0.0000 H   0  0  0  0  0  0  0  0  0  0  0  0
    4.9272    1.2109    0.0000 H   0  0  0  0  0  0  0  0  0  0  0  0
    8.3717   -1.8244    0.0000 H   0  0  0  0  0  0  0  0  0  0  0  0
    6.3301    3.6409    0.0000 H   0  0  0  0  0  0  0  0  0  0  0  0
   12.1159   -1.7122    0.0000 H   0  0  0  0  0  0  0  0  0  0  0  0
    2.0000   -1.0991    0.0000 H   0  0  0  0  0  0  0  0  0  0  0  0
   12.1049   -0.2798    0.0000 H   0  0  0  0  0  0  0  0  0  0  0  0
    7.5062    5.0578    0.0000 H   0  0  0  0  0  0  0  0  0  0  0  0
    6.6592    4.8309    0.0000 H   0  0  0  0  0  0  0  0  0  0  0  0
    6.8862    3.9839    0.0000 H   0  0  0  0  0  0  0  0  0  0  0  0
    9.2382    3.9839    0.0000 H   0  0  0  0  0  0  0  0  0  0  0  0
    9.4651    4.8309    0.0000 H   0  0  0  0  0  0  0  0  0  0  0  0
    8.6182    5.0578    0.0000 H   0  0  0  0  0  0  0  0  0  0  0  0
   11.0483   -3.3363    0.0000 H   0  0  0  0  0  0  0  0  0  0  0  0
    4.5981    3.6409    0.0000 H   0  0  0  0  0  0  0  0  0  0  0  0
    9.2682   -3.3563    0.0000 H   0  0  0  0  0  0  0  0  0  0  0  0
   12.9901   -3.8288    0.0000 H   0  0  0  0  0  0  0  0  0  0  0  0
   11.8359   -4.5233    0.0000 H   0  0  0  0  0  0  0  0  0  0  0  0
   12.4583   -5.1409    0.0000 H   0  0  0  0  0  0  0  0  0  0  0  0
   13.0759   -4.5185    0.0000 H   0  0  0  0  0  0  0  0  0  0  0  0
   13.6282   -3.5533    0.0000 H   0  0  0  0  0  0  0  0  0  0  0  0
   13.8518   -2.7055    0.0000 H   0  0  0  0  0  0  0  0  0  0  0  0
   13.0040   -2.4818    0.0000 H   0  0  0  0  0  0  0  0  0  0  0  0
  1 17  1  0  0  0  0
  1 19  1  0  0  0  0
  2 17  1  0  0  0  0
  2 23  1  0  0  0  0
  3 18  1  0  0  0  0
  3 25  1  0  0  0  0
  4 13  1  0  0  0  0
  4 54  1  0  0  0  0
  5 14  1  0  0  0  0
  5 55  1  0  0  0  0
  6 15  1  0  0  0  0
  6 56  1  0  0  0  0
  7 22  2  0  0  0  0
  8 26  1  0  0  0  0
  8 62  1  0  0  0  0
  9 26  2  0  0  0  0
 10 30  1  0  0  0  0
 10 63  1  0  0  0  0
 11 34  1  0  0  0  0
 11 71  1  0  0  0  0
 12 35  1  0  0  0  0
 12 72  1  0  0  0  0
 13 14  1  0  0  0  0
 13 15  1  0  0  0  0
 13 44  1  0  0  0  0
 14 17  1  0  0  0  0
 14 45  1  0  0  0  0
 15 19  1  0  0  0  0
 15 46  1  0  0  0  0
 16 18  1  0  0  0  0
 16 21  1  0  0  0  0
 16 22  1  0  0  0  0
 16 47  1  0  0  0  0
 17 48  1  0  0  0  0
 18 20  1  0  0  0  0
 18 49  1  0  0  0  0
 19 26  1  0  0  0  0
 19 50  1  0  0  0  0
 20 23  2  0  0  0  0
 20 27  1  0  0  0  0
 21 28  1  0  0  0  0
 21 51  1  0  0  0  0
 21 52  1  0  0  0  0
 22 24  1  0  0  0  0
 23 29  1  0  0  0  0
 24 25  2  0  0  0  0
 24 30  1  0  0  0  0
 25 31  1  0  0  0  0
 27 33  2  0  0  0  0
 27 53  1  0  0  0  0
 28 36  2  0  0  0  0
 28 57  1  0  0  0  0
 29 34  2  0  0  0  0
 29 58  1  0  0  0  0
 30 32  2  0  0  0  0
 31 35  2  0  0  0  0
 31 59  1  0  0  0  0
 32 35  1  0  0  0  0
 32 37  1  0  0  0  0
 33 34  1  0  0  0  0
 33 60  1  0  0  0  0
 36 38  1  0  0  0  0
 36 39  1  0  0  0  0
 37 40  2  0  0  0  0
 37 61  1  0  0  0  0
 38 64  1  0  0  0  0
 38 65  1  0  0  0  0
 38 66  1  0  0  0  0
 39 67  1  0  0  0  0
 39 68  1  0  0  0  0
 39 69  1  0  0  0  0
 40 41  1  0  0  0  0
 40 70  1  0  0  0  0
 41 42  1  0  0  0  0
 41 43  1  0  0  0  0
 41 73  1  0  0  0  0
 42 74  1  0  0  0  0
 42 75  1  0  0  0  0
 42 76  1  0  0  0  0
 43 77  1  0  0  0  0
 43 78  1  0  0  0  0
 43 79  1  0  0  0  0
M  END
> <PUBCHEM_COMPOUND_CID>
131836709

> <PUBCHEM_COMPOUND_CANONICALIZED>
1

> <PUBCHEM_CACTVS_COMPLEXITY>
1040

> <PUBCHEM_CACTVS_HBOND_ACCEPTOR>
12

> <PUBCHEM_CACTVS_HBOND_DONOR>
7

> <PUBCHEM_CACTVS_ROTATABLE_BOND>
8

> <PUBCHEM_CACTVS_SUBSKEYS>
AAADcfB4PAAAAAAAAAAAAAAAAAAAAAAAAAA0aIEAAAAAAACRQAAAGgAACAAADRSwmAMyDoAABgCIAqDSCAICCAAkIAAIiAFGCMgdNzaGNR6ieWCl4BUPuQfK7OzOIAACCAAIAABAAAQQABAAAAAAAAAAAA==

> <PUBCHEM_IUPAC_OPENEYE_NAME>
6-[2-[5,7-dihydroxy-6-[(E)-3-methylbut-1-enyl]-3-(3-methylbut-2-enyl)-4-oxo-chroman-2-yl]-5-hydroxy-phenoxy]-3,4,5-trihydroxy-tetrahydropyran-2-carboxylic acid

> <PUBCHEM_IUPAC_CAS_NAME>
6-[2-[5,7-dihydroxy-6-[(E)-3-methylbut-1-enyl]-3-(3-methylbut-2-enyl)-4-oxo-3,4-dihydro-2H-1-benzopyran-2-yl]-5-hydroxyphenoxy]-3,4,5-trihydroxy-2-oxanecarboxylic acid

> <PUBCHEM_IUPAC_NAME_MARKUP>
6-[2-[5,7-dihydroxy-6-[(<I>E</I>)-3-methylbut-1-enyl]-3-(3-methylbut-2-enyl)-4-oxo-2,3-dihydrochromen-2-yl]-5-hydroxyphenoxy]-3,4,5-trihydroxyoxane-2-carboxylic acid

> <PUBCHEM_IUPAC_NAME>
6-[2-[5,7-dihydroxy-6-[(E)-3-methylbut-1-enyl]-3-(3-methylbut-2-enyl)-4-oxo-2,3-dihydrochromen-2-yl]-5-hydroxyphenoxy]-3,4,5-trihydroxyoxane-2-carboxylic acid

> <PUBCHEM_IUPAC_SYSTEMATIC_NAME>
6-[2-[6-[(E)-3-methylbut-1-enyl]-3-(3-methylbut-2-enyl)-5,7-bis(oxidanyl)-4-oxidanylidene-2,3-dihydrochromen-2-yl]-5-oxidanyl-phenoxy]-3,4,5-tris(oxidanyl)oxane-2-carboxylic acid

> <PUBCHEM_IUPAC_TRADITIONAL_NAME>
6-[2-[5,7-dihydroxy-4-keto-6-[(E)-3-methylbut-1-enyl]-3-(3-methylbut-2-enyl)chroman-2-yl]-5-hydroxy-phenoxy]-3,4,5-trihydroxy-tetrahydropyran-2-carboxylic acid

> <PUBCHEM_IUPAC_INCHI>
InChI=1S/C31H36O12/c1-13(2)5-8-16-19(33)12-21-22(23(16)34)24(35)18(9-6-14(3)4)28(41-21)17-10-7-15(32)11-20(17)42-31-27(38)25(36)26(37)29(43-31)30(39)40/h5-8,10-13,18,25-29,31-34,36-38H,9H2,1-4H3,(H,39,40)/b8-5+

> <PUBCHEM_IUPAC_INCHIKEY>
HOPNWFVKWSFMLR-VMPITWQZSA-N

> <PUBCHEM_XLOGP3_AA>
4.2

> <PUBCHEM_EXACT_MASS>
600.22067658

> <PUBCHEM_MOLECULAR_FORMULA>
C31H36O12

> <PUBCHEM_MOLECULAR_WEIGHT>
600.6

> <PUBCHEM_OPENEYE_CAN_SMILES>
CC(C)C=CC1=C(C2=C(C=C1O)OC(C(C2=O)CC=C(C)C)C3=C(C=C(C=C3)O)OC4C(C(C(C(O4)C(=O)O)O)O)O)O

> <PUBCHEM_OPENEYE_ISO_SMILES>
CC(C)/C=C/C1=C(C2=C(C=C1O)OC(C(C2=O)CC=C(C)C)C3=C(C=C(C=C3)O)OC4C(C(C(C(O4)C(=O)O)O)O)O)O

> <PUBCHEM_CACTVS_TPSA>
203

> <PUBCHEM_MONOISOTOPIC_WEIGHT>
600.22067658

> <PUBCHEM_TOTAL_CHARGE>
0

> <PUBCHEM_HEAVY_ATOM_COUNT>
43

> <PUBCHEM_ATOM_DEF_STEREO_COUNT>
0

> <PUBCHEM_ATOM_UDEF_STEREO_COUNT>
7

> <PUBCHEM_BOND_DEF_STEREO_COUNT>
1

> <PUBCHEM_BOND_UDEF_STEREO_COUNT>
0

> <PUBCHEM_ISOTOPIC_ATOM_COUNT>
0

> <PUBCHEM_COMPONENT_COUNT>
1

> <PUBCHEM_CACTVS_TAUTO_COUNT>
-1

> <PUBCHEM_COORDINATE_TYPE>
1
5
255

> <PUBCHEM_BONDANNOTATIONS>
16  21  3
18  20  3
19  26  3
17  2  3
20  23  8
20  27  8
23  29  8
24  25  8
24  30  8
25  31  8
27  33  8
29  34  8
30  32  8
31  35  8
32  35  8
33  34  8
13  4  3
14  5  3
15  6  3

$$$$
