 
  -OEChem-10192104222D

 72 77  0     1  0  0  0  0  0999 V2000
    8.7036   -0.4945    0.0000 O   0  0  0  0  0  0  0  0  0  0  0  0
   10.9841    1.5588    0.0000 O   0  0  0  0  0  0  0  0  0  0  0  0
    6.8671   -0.5000    0.0000 O   0  0  0  0  0  0  0  0  0  0  0  0
    5.1350   -0.5000    0.0000 O   0  0  0  0  0  0  0  0  0  0  0  0
   14.6335    0.3811    0.0000 O   0  0  0  0  0  0  0  0  0  0  0  0
    5.1350    0.5000    0.0000 O   0  0  0  0  0  0  0  0  0  0  0  0
    6.8671   -2.5000    0.0000 O   0  0  0  0  0  0  0  0  0  0  0  0
    5.1350   -3.5000    0.0000 O   0  0  0  0  0  0  0  0  0  0  0  0
   14.6363   -1.2283    0.0000 O   0  0  0  0  0  0  0  0  0  0  0  0
    3.4030   -2.5000    0.0000 O   0  0  0  0  0  0  0  0  0  0  0  0
    6.8671    3.5000    0.0000 O   0  0  0  0  0  0  0  0  0  0  0  0
    5.1350    2.5000    0.0000 O   0  0  0  0  0  0  0  0  0  0  0  0
    2.5369   -1.0000    0.0000 O   0  0  0  0  0  0  0  0  0  0  0  0
    9.5127    0.9067    0.0000 C   0  0  3  0  0  0  0  0  0  0  0  0
   10.1818    0.1636    0.0000 C   0  0  3  0  0  0  0  0  0  0  0  0
    8.5991    0.5000    0.0000 C   0  0  3  0  0  0  0  0  0  0  0  0
   11.0889    0.5703    0.0000 C   0  0  3  0  0  0  0  0  0  0  0  0
    9.6818   -0.7024    0.0000 C   0  0  0  0  0  0  0  0  0  0  0  0
   10.0119    1.7663    0.0000 C   0  0  0  0  0  0  0  0  0  0  0  0
    7.7331    1.0000    0.0000 C   0  0  0  0  0  0  0  0  0  0  0  0
   11.9558    0.0718    0.0000 C   0  0  0  0  0  0  0  0  0  0  0  0
    6.8671    0.5000    0.0000 C   0  0  0  0  0  0  0  0  0  0  0  0
    7.7331    2.0000    0.0000 C   0  0  0  0  0  0  0  0  0  0  0  0
   12.8209    0.5733    0.0000 C   0  0  0  0  0  0  0  0  0  0  0  0
   11.9575   -0.9282    0.0000 C   0  0  0  0  0  0  0  0  0  0  0  0
    6.0010   -1.0000    0.0000 C   0  0  2  0  0  0  0  0  0  0  0  0
    6.0010   -2.0000    0.0000 C   0  0  1  0  0  0  0  0  0  0  0  0
    6.0010    1.0000    0.0000 C   0  0  0  0  0  0  0  0  0  0  0  0
    5.1350   -2.5000    0.0000 C   0  0  2  0  0  0  0  0  0  0  0  0
    4.2690   -2.0000    0.0000 C   0  0  1  0  0  0  0  0  0  0  0  0
    4.2690   -1.0000    0.0000 C   0  0  1  0  0  0  0  0  0  0  0  0
    6.8671    2.5000    0.0000 C   0  0  0  0  0  0  0  0  0  0  0  0
   13.6878    0.0748    0.0000 C   0  0  0  0  0  0  0  0  0  0  0  0
   12.8244   -1.4267    0.0000 C   0  0  0  0  0  0  0  0  0  0  0  0
    6.0010    2.0000    0.0000 C   0  0  0  0  0  0  0  0  0  0  0  0
   13.6895   -0.9252    0.0000 C   0  0  0  0  0  0  0  0  0  0  0  0
    3.4030   -0.5000    0.0000 C   0  0  0  0  0  0  0  0  0  0  0  0
   15.2185   -0.4226    0.0000 C   0  0  0  0  0  0  0  0  0  0  0  0
    4.2690    1.0000    0.0000 C   0  0  0  0  0  0  0  0  0  0  0  0
    5.1350    3.5000    0.0000 C   0  0  0  0  0  0  0  0  0  0  0  0
    9.0984    1.3680    0.0000 H   0  0  0  0  0  0  0  0  0  0  0  0
   10.5972   -0.2966    0.0000 H   0  0  0  0  0  0  0  0  0  0  0  0
    8.0791    0.1623    0.0000 H   0  0  0  0  0  0  0  0  0  0  0  0
   11.6084    0.9086    0.0000 H   0  0  0  0  0  0  0  0  0  0  0  0
    9.4902   -1.2921    0.0000 H   0  0  0  0  0  0  0  0  0  0  0  0
   10.2482   -0.9546    0.0000 H   0  0  0  0  0  0  0  0  0  0  0  0
   10.2044    2.3557    0.0000 H   0  0  0  0  0  0  0  0  0  0  0  0
    9.4460    2.0197    0.0000 H   0  0  0  0  0  0  0  0  0  0  0  0
    8.2700    2.3100    0.0000 H   0  0  0  0  0  0  0  0  0  0  0  0
   12.8198    1.1933    0.0000 H   0  0  0  0  0  0  0  0  0  0  0  0
   11.4211   -1.2392    0.0000 H   0  0  0  0  0  0  0  0  0  0  0  0
    6.0010   -0.3800    0.0000 H   0  0  0  0  0  0  0  0  0  0  0  0
    6.0010   -2.6200    0.0000 H   0  0  0  0  0  0  0  0  0  0  0  0
    4.5981   -2.8100    0.0000 H   0  0  0  0  0  0  0  0  0  0  0  0
    4.2690   -2.6200    0.0000 H   0  0  0  0  0  0  0  0  0  0  0  0
    4.2690   -0.3800    0.0000 H   0  0  0  0  0  0  0  0  0  0  0  0
   12.8255   -2.0467    0.0000 H   0  0  0  0  0  0  0  0  0  0  0  0
    3.8015   -0.0251    0.0000 H   0  0  0  0  0  0  0  0  0  0  0  0
    3.0044   -0.0251    0.0000 H   0  0  0  0  0  0  0  0  0  0  0  0
    6.8671   -3.1200    0.0000 H   0  0  0  0  0  0  0  0  0  0  0  0
    4.5981   -3.8100    0.0000 H   0  0  0  0  0  0  0  0  0  0  0  0
    3.4030   -3.1200    0.0000 H   0  0  0  0  0  0  0  0  0  0  0  0
   15.6801   -0.8365    0.0000 H   0  0  0  0  0  0  0  0  0  0  0  0
   15.6787   -0.0071    0.0000 H   0  0  0  0  0  0  0  0  0  0  0  0
    7.4040    3.8100    0.0000 H   0  0  0  0  0  0  0  0  0  0  0  0
    4.5790    1.5369    0.0000 H   0  0  0  0  0  0  0  0  0  0  0  0
    3.7320    1.3100    0.0000 H   0  0  0  0  0  0  0  0  0  0  0  0
    3.9590    0.4631    0.0000 H   0  0  0  0  0  0  0  0  0  0  0  0
    2.0000   -0.6900    0.0000 H   0  0  0  0  0  0  0  0  0  0  0  0
    5.7550    3.5000    0.0000 H   0  0  0  0  0  0  0  0  0  0  0  0
    5.1350    4.1200    0.0000 H   0  0  0  0  0  0  0  0  0  0  0  0
    4.5150    3.5000    0.0000 H   0  0  0  0  0  0  0  0  0  0  0  0
  1 16  1  0  0  0  0
  1 18  1  0  0  0  0
  2 17  1  0  0  0  0
  2 19  1  0  0  0  0
  3 22  1  0  0  0  0
 26  3  1  1  0  0  0
  4 26  1  0  0  0  0
  4 31  1  0  0  0  0
  5 33  1  0  0  0  0
  5 38  1  0  0  0  0
  6 28  1  0  0  0  0
  6 39  1  0  0  0  0
 27  7  1  6  0  0  0
  7 60  1  0  0  0  0
 29  8  1  1  0  0  0
  8 61  1  0  0  0  0
  9 36  1  0  0  0  0
  9 38  1  0  0  0  0
 30 10  1  6  0  0  0
 10 62  1  0  0  0  0
 11 32  1  0  0  0  0
 11 65  1  0  0  0  0
 12 35  1  0  0  0  0
 12 40  1  0  0  0  0
 13 37  1  0  0  0  0
 13 69  1  0  0  0  0
 14 15  1  0  0  0  0
 14 16  1  0  0  0  0
 14 19  1  0  0  0  0
 14 41  1  0  0  0  0
 15 17  1  0  0  0  0
 15 18  1  0  0  0  0
 15 42  1  0  0  0  0
 16 20  1  0  0  0  0
 16 43  1  0  0  0  0
 17 21  1  0  0  0  0
 17 44  1  0  0  0  0
 18 45  1  0  0  0  0
 18 46  1  0  0  0  0
 19 47  1  0  0  0  0
 19 48  1  0  0  0  0
 20 22  1  0  0  0  0
 20 23  2  0  0  0  0
 21 24  2  0  0  0  0
 21 25  1  0  0  0  0
 22 28  2  0  0  0  0
 23 32  1  0  0  0  0
 23 49  1  0  0  0  0
 24 33  1  0  0  0  0
 24 50  1  0  0  0  0
 25 34  2  0  0  0  0
 25 51  1  0  0  0  0
 26 27  1  0  0  0  0
 26 52  1  0  0  0  0
 27 29  1  0  0  0  0
 27 53  1  0  0  0  0
 28 35  1  0  0  0  0
 29 30  1  0  0  0  0
 29 54  1  0  0  0  0
 30 31  1  0  0  0  0
 30 55  1  0  0  0  0
 31 37  1  1  0  0  0
 31 56  1  0  0  0  0
 32 35  2  0  0  0  0
 33 36  2  0  0  0  0
 34 36  1  0  0  0  0
 34 57  1  0  0  0  0
 37 58  1  0  0  0  0
 37 59  1  0  0  0  0
 38 63  1  0  0  0  0
 38 64  1  0  0  0  0
 39 66  1  0  0  0  0
 39 67  1  0  0  0  0
 39 68  1  0  0  0  0
 40 70  1  0  0  0  0
 40 71  1  0  0  0  0
 40 72  1  0  0  0  0
M  END
> <PUBCHEM_COMPOUND_CID>
132519628

> <PUBCHEM_COMPOUND_CANONICALIZED>
1

> <PUBCHEM_CACTVS_COMPLEXITY>
849

> <PUBCHEM_CACTVS_HBOND_ACCEPTOR>
13

> <PUBCHEM_CACTVS_HBOND_DONOR>
5

> <PUBCHEM_CACTVS_ROTATABLE_BOND>
7

> <PUBCHEM_CACTVS_SUBSKEYS>
AAADcfB4PAAAAAAAAAAAAAAAAAAAASJEgAA0YIAAAAASAEgBQAAAGgAACAAADRSwmAMyDoAABgCAAiBCAAACCAAgIAAIiAAGiIgdNyKGMRqieCOlwBUPuAfA4PwOoQABCAAIQABCAAIQABCAAAAAAAAAAA==

> <PUBCHEM_IUPAC_OPENEYE_NAME>
(2S,3R,4S,5S,6R)-2-[6-[3-(1,3-benzodioxol-5-yl)-1,3,3a,4,6,6a-hexahydrofuro[3,4-c]furan-6-yl]-4-hydroxy-2,3-dimethoxy-phenoxy]-6-(hydroxymethyl)tetrahydropyran-3,4,5-triol

> <PUBCHEM_IUPAC_CAS_NAME>
(2S,3R,4S,5S,6R)-2-[6-[3-(1,3-benzodioxol-5-yl)-1,3,3a,4,6,6a-hexahydrofuro[3,4-c]furan-6-yl]-4-hydroxy-2,3-dimethoxyphenoxy]-6-(hydroxymethyl)oxane-3,4,5-triol

> <PUBCHEM_IUPAC_NAME_MARKUP>
(2<I>S</I>,3<I>R</I>,4<I>S</I>,5<I>S</I>,6<I>R</I>)-2-[6-[3-(1,3-benzodioxol-5-yl)-1,3,3<I>a</I>,4,6,6<I>a</I>-hexahydrofuro[3,4-c]furan-6-yl]-4-hydroxy-2,3-dimethoxyphenoxy]-6-(hydroxymethyl)oxane-3,4,5-triol

> <PUBCHEM_IUPAC_NAME>
(2S,3R,4S,5S,6R)-2-[6-[3-(1,3-benzodioxol-5-yl)-1,3,3a,4,6,6a-hexahydrofuro[3,4-c]furan-6-yl]-4-hydroxy-2,3-dimethoxyphenoxy]-6-(hydroxymethyl)oxane-3,4,5-triol

> <PUBCHEM_IUPAC_SYSTEMATIC_NAME>
(2S,3R,4S,5S,6R)-2-[6-[3-(1,3-benzodioxol-5-yl)-1,3,3a,4,6,6a-hexahydrofuro[3,4-c]furan-6-yl]-2,3-dimethoxy-4-oxidanyl-phenoxy]-6-(hydroxymethyl)oxane-3,4,5-triol

> <PUBCHEM_IUPAC_TRADITIONAL_NAME>
(2S,3R,4S,5S,6R)-2-[6-[3-(1,3-benzodioxol-5-yl)-1,3,3a,4,6,6a-hexahydrofuro[3,4-c]furan-6-yl]-4-hydroxy-2,3-dimethoxy-phenoxy]-6-methylol-tetrahydropyran-3,4,5-triol

> <PUBCHEM_IUPAC_INCHI>
InChI=1S/C27H32O13/c1-33-25-15(29)6-12(24(26(25)34-2)40-27-21(32)20(31)19(30)18(7-28)39-27)23-14-9-35-22(13(14)8-36-23)11-3-4-16-17(5-11)38-10-37-16/h3-6,13-14,18-23,27-32H,7-10H2,1-2H3/t13?,14?,18-,19-,20+,21-,22?,23?,27+/m1/s1

> <PUBCHEM_IUPAC_INCHIKEY>
PGLILAKIYHOCKX-PHOFWJIXSA-N

> <PUBCHEM_XLOGP3_AA>
0.3

> <PUBCHEM_EXACT_MASS>
564.18429107

> <PUBCHEM_MOLECULAR_FORMULA>
C27H32O13

> <PUBCHEM_MOLECULAR_WEIGHT>
564.5

> <PUBCHEM_OPENEYE_CAN_SMILES>
COC1=C(C=C(C(=C1OC)OC2C(C(C(C(O2)CO)O)O)O)C3C4COC(C4CO3)C5=CC6=C(C=C5)OCO6)O

> <PUBCHEM_OPENEYE_ISO_SMILES>
COC1=C(C=C(C(=C1OC)O[C@H]2[C@@H]([C@H]([C@@H]([C@H](O2)CO)O)O)O)C3C4COC(C4CO3)C5=CC6=C(C=C5)OCO6)O

> <PUBCHEM_CACTVS_TPSA>
175

> <PUBCHEM_MONOISOTOPIC_WEIGHT>
564.18429107

> <PUBCHEM_TOTAL_CHARGE>
0

> <PUBCHEM_HEAVY_ATOM_COUNT>
40

> <PUBCHEM_ATOM_DEF_STEREO_COUNT>
5

> <PUBCHEM_ATOM_UDEF_STEREO_COUNT>
4

> <PUBCHEM_BOND_DEF_STEREO_COUNT>
0

> <PUBCHEM_BOND_UDEF_STEREO_COUNT>
0

> <PUBCHEM_ISOTOPIC_ATOM_COUNT>
0

> <PUBCHEM_COMPONENT_COUNT>
1

> <PUBCHEM_CACTVS_TAUTO_COUNT>
-1

> <PUBCHEM_COORDINATE_TYPE>
1
5
255

> <PUBCHEM_BONDANNOTATIONS>
30  10  6
14  19  3
15  18  3
16  20  3
17  21  3
20  22  8
20  23  8
21  24  8
21  25  8
22  28  8
23  32  8
24  33  8
25  34  8
28  35  8
26  3  5
31  37  5
32  35  8
33  36  8
34  36  8
27  7  6
29  8  5

$$$$
