 
  -OEChem-10192104072D

 29 30  0     1  0  0  0  0  0999 V2000
    5.8606    2.3965    0.0000 O   0  0  0  0  0  0  0  0  0  0  0  0
    7.5632   -0.7767    0.0000 O   0  0  0  0  0  0  0  0  0  0  0  0
    4.0511   -1.7826    0.0000 O   0  0  0  0  0  0  0  0  0  0  0  0
    5.8902   -1.2250    0.0000 O   0  0  0  0  0  0  0  0  0  0  0  0
    2.5826    0.4423    0.0000 O   0  0  0  0  0  0  0  0  0  0  0  0
    5.7662   -2.0236    0.0000 O   0  0  0  0  0  0  0  0  0  0  0  0
    3.1750   -1.1853    0.0000 O   0  0  0  0  0  0  0  0  0  0  0  0
    6.3384    0.4480    0.0000 C   0  0  3  0  0  0  0  0  0  0  0  0
    5.1174   -0.4177    0.0000 C   0  0  3  0  0  0  0  0  0  0  0  0
    6.5972    1.4139    0.0000 C   0  0  3  0  0  0  0  0  0  0  0  0
    4.2884    0.1415    0.0000 C   0  0  3  0  0  0  0  0  0  0  0  0
    7.7374   -0.0608    0.0000 C   0  0  0  0  0  0  0  0  0  0  0  0
    4.5640    1.1028    0.0000 C   0  0  0  0  0  0  0  0  0  0  0  0
    7.9962    0.9051    0.0000 C   0  0  0  0  0  0  0  0  0  0  0  0
    6.5973   -0.5179    0.0000 C   0  0  0  0  0  0  0  0  0  0  0  0
    4.9782   -1.4079    0.0000 C   0  0  0  0  0  0  0  0  0  0  0  0
    3.3486   -0.2005    0.0000 C   0  0  0  0  0  0  0  0  0  0  0  0
    5.6470   -0.7401    0.0000 H   0  0  0  0  0  0  0  0  0  0  0  0
    6.9666    1.9119    0.0000 H   0  0  0  0  0  0  0  0  0  0  0  0
    3.8349    0.5644    0.0000 H   0  0  0  0  0  0  0  0  0  0  0  0
    7.5424   -0.6494    0.0000 H   0  0  0  0  0  0  0  0  0  0  0  0
    8.3313   -0.2386    0.0000 H   0  0  0  0  0  0  0  0  0  0  0  0
    4.5589    1.7228    0.0000 H   0  0  0  0  0  0  0  0  0  0  0  0
    3.9497    1.1866    0.0000 H   0  0  0  0  0  0  0  0  0  0  0  0
    8.5901    0.7273    0.0000 H   0  0  0  0  0  0  0  0  0  0  0  0
    8.1911    1.4937    0.0000 H   0  0  0  0  0  0  0  0  0  0  0  0
    7.7236   -1.3756    0.0000 H   0  0  0  0  0  0  0  0  0  0  0  0
    3.9648   -2.3965    0.0000 H   0  0  0  0  0  0  0  0  0  0  0  0
    2.0000    0.2302    0.0000 H   0  0  0  0  0  0  0  0  0  0  0  0
  1  8  1  0  0  0  0
  1 10  1  0  0  0  0
  2 15  1  0  0  0  0
  2 27  1  0  0  0  0
  3 16  1  0  0  0  0
  3 28  1  0  0  0  0
  4 15  2  0  0  0  0
  5 17  1  0  0  0  0
  5 29  1  0  0  0  0
  6 16  2  0  0  0  0
  7 17  2  0  0  0  0
  8  9  1  0  0  0  0
  8 12  1  0  0  0  0
  8 15  1  0  0  0  0
  9 11  1  0  0  0  0
  9 16  1  0  0  0  0
  9 18  1  0  0  0  0
 10 13  1  0  0  0  0
 10 14  1  0  0  0  0
 10 19  1  0  0  0  0
 11 13  1  0  0  0  0
 11 17  1  0  0  0  0
 11 20  1  0  0  0  0
 12 14  1  0  0  0  0
 12 21  1  0  0  0  0
 12 22  1  0  0  0  0
 13 23  1  0  0  0  0
 13 24  1  0  0  0  0
 14 25  1  0  0  0  0
 14 26  1  0  0  0  0
M  END
> <PUBCHEM_COMPOUND_CID>
67784365

> <PUBCHEM_COMPOUND_CANONICALIZED>
1

> <PUBCHEM_CACTVS_COMPLEXITY>
390

> <PUBCHEM_CACTVS_HBOND_ACCEPTOR>
7

> <PUBCHEM_CACTVS_HBOND_DONOR>
3

> <PUBCHEM_CACTVS_ROTATABLE_BOND>
3

> <PUBCHEM_CACTVS_SUBSKEYS>
AAADccBwOAAAAAAAAAAAAAAAAAAAASAAAAAkAAAABgAAAAAAAAAAGgAACAAADVSggAIACAAABgAIAACQCAIAAAAAAAAAAAFAAAABABYAAAQCQAAFIAADAAHL7vzOgAAAAAAAAAAAAAAAAAAAAAAAAAAAAA==

> <PUBCHEM_IUPAC_OPENEYE_NAME>
8-oxabicyclo[3.2.1]octane-1,2,3-tricarboxylic acid

> <PUBCHEM_IUPAC_CAS_NAME>
8-oxabicyclo[3.2.1]octane-1,2,3-tricarboxylic acid

> <PUBCHEM_IUPAC_NAME_MARKUP>
8-oxabicyclo[3.2.1]octane-1,2,3-tricarboxylic acid

> <PUBCHEM_IUPAC_NAME>
8-oxabicyclo[3.2.1]octane-1,2,3-tricarboxylic acid

> <PUBCHEM_IUPAC_SYSTEMATIC_NAME>
8-oxabicyclo[3.2.1]octane-1,2,3-tricarboxylic acid

> <PUBCHEM_IUPAC_TRADITIONAL_NAME>
8-oxabicyclo[3.2.1]octane-1,2,3-tricarboxylic acid

> <PUBCHEM_IUPAC_INCHI>
InChI=1S/C10H12O7/c11-7(12)5-3-4-1-2-10(17-4,9(15)16)6(5)8(13)14/h4-6H,1-3H2,(H,11,12)(H,13,14)(H,15,16)

> <PUBCHEM_IUPAC_INCHIKEY>
POXWCJLFEMJSQM-UHFFFAOYSA-N

> <PUBCHEM_XLOGP3_AA>
-0.7

> <PUBCHEM_EXACT_MASS>
244.05830272

> <PUBCHEM_MOLECULAR_FORMULA>
C10H12O7

> <PUBCHEM_MOLECULAR_WEIGHT>
244.20

> <PUBCHEM_OPENEYE_CAN_SMILES>
C1CC2(C(C(CC1O2)C(=O)O)C(=O)O)C(=O)O

> <PUBCHEM_OPENEYE_ISO_SMILES>
C1CC2(C(C(CC1O2)C(=O)O)C(=O)O)C(=O)O

> <PUBCHEM_CACTVS_TPSA>
121

> <PUBCHEM_MONOISOTOPIC_WEIGHT>
244.05830272

> <PUBCHEM_TOTAL_CHARGE>
0

> <PUBCHEM_HEAVY_ATOM_COUNT>
17

> <PUBCHEM_ATOM_DEF_STEREO_COUNT>
0

> <PUBCHEM_ATOM_UDEF_STEREO_COUNT>
4

> <PUBCHEM_BOND_DEF_STEREO_COUNT>
0

> <PUBCHEM_BOND_UDEF_STEREO_COUNT>
0

> <PUBCHEM_ISOTOPIC_ATOM_COUNT>
0

> <PUBCHEM_COMPONENT_COUNT>
1

> <PUBCHEM_CACTVS_TAUTO_COUNT>
-1

> <PUBCHEM_COORDINATE_TYPE>
1
5
255

> <PUBCHEM_BONDANNOTATIONS>
10  14  3
11  17  3
8  15  3
9  16  3

$$$$
