 
  -OEChem-10192103352D

 68 71  0     1  0  0  0  0  0999 V2000
    6.8671   -2.1550    0.0000 O   0  0  0  0  0  0  0  0  0  0  0  0
    6.0010    1.3450    0.0000 O   0  0  0  0  0  0  0  0  0  0  0  0
    5.1350   -0.1550    0.0000 O   0  0  0  0  0  0  0  0  0  0  0  0
    5.1350   -2.1550    0.0000 O   0  0  0  0  0  0  0  0  0  0  0  0
    8.1240   -2.4102    0.0000 O   0  0  0  0  0  0  0  0  0  0  0  0
    5.1350    2.8450    0.0000 O   0  0  0  0  0  0  0  0  0  0  0  0
    6.8671   -4.1550    0.0000 O   0  0  0  0  0  0  0  0  0  0  0  0
    5.1350   -5.1550    0.0000 O   0  0  0  0  0  0  0  0  0  0  0  0
    9.1024    1.3065    0.0000 O   0  0  0  0  0  0  0  0  0  0  0  0
    3.4030   -4.1550    0.0000 O   0  0  0  0  0  0  0  0  0  0  0  0
    4.2690    0.3450    0.0000 O   0  0  0  0  0  0  0  0  0  0  0  0
    2.5369    1.3450    0.0000 O   0  0  0  0  0  0  0  0  0  0  0  0
    2.5369    3.3450    0.0000 O   0  0  0  0  0  0  0  0  0  0  0  0
    2.5369   -2.6550    0.0000 O   0  0  0  0  0  0  0  0  0  0  0  0
    5.1350    4.8450    0.0000 O   0  0  0  0  0  0  0  0  0  0  0  0
    6.8671   -1.1550    0.0000 C   0  0  3  0  0  0  0  0  0  0  0  0
    6.8671   -0.1550    0.0000 C   0  0  3  0  0  0  0  0  0  0  0  0
    7.8133   -1.4597    0.0000 C   0  0  3  0  0  0  0  0  0  0  0  0
    6.0010    0.3450    0.0000 C   0  0  3  0  0  0  0  0  0  0  0  0
    7.8133    0.1497    0.0000 C   0  0  0  0  0  0  0  0  0  0  0  0
    8.3969   -0.6550    0.0000 C   0  0  0  0  0  0  0  0  0  0  0  0
    6.0010   -1.6550    0.0000 C   0  0  0  0  0  0  0  0  0  0  0  0
    6.0010   -2.6550    0.0000 C   0  0  3  0  0  0  0  0  0  0  0  0
    6.0010   -3.6550    0.0000 C   0  0  3  0  0  0  0  0  0  0  0  0
    5.1350    1.8450    0.0000 C   0  0  3  0  0  0  0  0  0  0  0  0
    5.1350   -4.1550    0.0000 C   0  0  3  0  0  0  0  0  0  0  0  0
    8.1240    1.1002    0.0000 C   0  0  0  0  0  0  0  0  0  0  0  0
    4.2690   -3.6550    0.0000 C   0  0  3  0  0  0  0  0  0  0  0  0
    5.1350   -1.1550    0.0000 C   0  0  0  0  0  0  0  0  0  0  0  0
    4.2690   -2.6550    0.0000 C   0  0  3  0  0  0  0  0  0  0  0  0
    4.2690    1.3450    0.0000 C   0  0  3  0  0  0  0  0  0  0  0  0
    3.4030    1.8450    0.0000 C   0  0  3  0  0  0  0  0  0  0  0  0
    3.4030    2.8450    0.0000 C   0  0  3  0  0  0  0  0  0  0  0  0
    4.2690    3.3450    0.0000 C   0  0  3  0  0  0  0  0  0  0  0  0
    3.4030   -2.1550    0.0000 C   0  0  0  0  0  0  0  0  0  0  0  0
    4.2690    4.3450    0.0000 C   0  0  0  0  0  0  0  0  0  0  0  0
    6.9327    0.4615    0.0000 H   0  0  0  0  0  0  0  0  0  0  0  0
    7.3758   -1.8991    0.0000 H   0  0  0  0  0  0  0  0  0  0  0  0
    6.5380    0.6550    0.0000 H   0  0  0  0  0  0  0  0  0  0  0  0
    9.0169   -0.6550    0.0000 H   0  0  0  0  0  0  0  0  0  0  0  0
    6.0010   -2.2750    0.0000 H   0  0  0  0  0  0  0  0  0  0  0  0
    6.0010   -2.0350    0.0000 H   0  0  0  0  0  0  0  0  0  0  0  0
    6.5380   -3.3450    0.0000 H   0  0  0  0  0  0  0  0  0  0  0  0
    5.1350    1.2250    0.0000 H   0  0  0  0  0  0  0  0  0  0  0  0
    5.6720   -4.4650    0.0000 H   0  0  0  0  0  0  0  0  0  0  0  0
    8.1034    1.7199    0.0000 H   0  0  0  0  0  0  0  0  0  0  0  0
    7.5101    1.1876    0.0000 H   0  0  0  0  0  0  0  0  0  0  0  0
    3.7320   -3.3450    0.0000 H   0  0  0  0  0  0  0  0  0  0  0  0
    4.5981   -1.4650    0.0000 H   0  0  0  0  0  0  0  0  0  0  0  0
    4.2690   -2.0350    0.0000 H   0  0  0  0  0  0  0  0  0  0  0  0
    3.7320    1.0350    0.0000 H   0  0  0  0  0  0  0  0  0  0  0  0
    2.8660    2.1550    0.0000 H   0  0  0  0  0  0  0  0  0  0  0  0
    3.4030    3.4650    0.0000 H   0  0  0  0  0  0  0  0  0  0  0  0
    4.8059    3.6550    0.0000 H   0  0  0  0  0  0  0  0  0  0  0  0
    7.7099   -2.8717    0.0000 H   0  0  0  0  0  0  0  0  0  0  0  0
    3.8015   -1.6800    0.0000 H   0  0  0  0  0  0  0  0  0  0  0  0
    3.0044   -1.6800    0.0000 H   0  0  0  0  0  0  0  0  0  0  0  0
    6.8671   -4.7750    0.0000 H   0  0  0  0  0  0  0  0  0  0  0  0
    4.0569    4.9276    0.0000 H   0  0  0  0  0  0  0  0  0  0  0  0
    3.6584    4.2373    0.0000 H   0  0  0  0  0  0  0  0  0  0  0  0
    4.5981   -5.4650    0.0000 H   0  0  0  0  0  0  0  0  0  0  0  0
    9.2951    1.8958    0.0000 H   0  0  0  0  0  0  0  0  0  0  0  0
    3.4030   -4.7750    0.0000 H   0  0  0  0  0  0  0  0  0  0  0  0
    3.7320    0.0350    0.0000 H   0  0  0  0  0  0  0  0  0  0  0  0
    2.0000    1.6550    0.0000 H   0  0  0  0  0  0  0  0  0  0  0  0
    2.5369    3.9650    0.0000 H   0  0  0  0  0  0  0  0  0  0  0  0
    2.0000   -2.3450    0.0000 H   0  0  0  0  0  0  0  0  0  0  0  0
    5.1350    5.4650    0.0000 H   0  0  0  0  0  0  0  0  0  0  0  0
  1 16  1  0  0  0  0
  1 23  1  0  0  0  0
  2 19  1  0  0  0  0
  2 25  1  0  0  0  0
  3 19  1  0  0  0  0
  3 29  1  0  0  0  0
  4 23  1  0  0  0  0
  4 30  1  0  0  0  0
  5 18  1  0  0  0  0
  5 55  1  0  0  0  0
  6 25  1  0  0  0  0
  6 34  1  0  0  0  0
  7 24  1  0  0  0  0
  7 58  1  0  0  0  0
  8 26  1  0  0  0  0
  8 61  1  0  0  0  0
  9 27  1  0  0  0  0
  9 62  1  0  0  0  0
 10 28  1  0  0  0  0
 10 63  1  0  0  0  0
 11 31  1  0  0  0  0
 11 64  1  0  0  0  0
 12 32  1  0  0  0  0
 12 65  1  0  0  0  0
 13 33  1  0  0  0  0
 13 66  1  0  0  0  0
 14 35  1  0  0  0  0
 14 67  1  0  0  0  0
 15 36  1  0  0  0  0
 15 68  1  0  0  0  0
 16 17  1  0  0  0  0
 16 18  1  0  0  0  0
 16 22  1  0  0  0  0
 17 19  1  0  0  0  0
 17 20  1  0  0  0  0
 17 37  1  0  0  0  0
 18 21  1  0  0  0  0
 18 38  1  0  0  0  0
 19 39  1  0  0  0  0
 20 21  2  0  0  0  0
 20 27  1  0  0  0  0
 21 40  1  0  0  0  0
 22 29  2  0  0  0  0
 22 41  1  0  0  0  0
 23 24  1  0  0  0  0
 23 42  1  0  0  0  0
 24 26  1  0  0  0  0
 24 43  1  0  0  0  0
 25 31  1  0  0  0  0
 25 44  1  0  0  0  0
 26 28  1  0  0  0  0
 26 45  1  0  0  0  0
 27 46  1  0  0  0  0
 27 47  1  0  0  0  0
 28 30  1  0  0  0  0
 28 48  1  0  0  0  0
 29 49  1  0  0  0  0
 30 35  1  0  0  0  0
 30 50  1  0  0  0  0
 31 32  1  0  0  0  0
 31 51  1  0  0  0  0
 32 33  1  0  0  0  0
 32 52  1  0  0  0  0
 33 34  1  0  0  0  0
 33 53  1  0  0  0  0
 34 36  1  0  0  0  0
 34 54  1  0  0  0  0
 35 56  1  0  0  0  0
 35 57  1  0  0  0  0
 36 59  1  0  0  0  0
 36 60  1  0  0  0  0
M  END
> <PUBCHEM_COMPOUND_CID>
15560475

> <PUBCHEM_COMPOUND_CANONICALIZED>
1

> <PUBCHEM_CACTVS_COMPLEXITY>
823

> <PUBCHEM_CACTVS_HBOND_ACCEPTOR>
15

> <PUBCHEM_CACTVS_HBOND_DONOR>
10

> <PUBCHEM_CACTVS_ROTATABLE_BOND>
7

> <PUBCHEM_CACTVS_SUBSKEYS>
AAADcfB4PAAAAAAAAAAAAAAAAAAAAQAAAAAkSIAAAAAAAEAAAAAAGgAACAAADVSwgAMACAAABgCAAiBCAAAACAAgIAAICAAAAAgRFAIAIQAiUAAFwAAPMAPAYAwOgAAAAAAAAAAAAAAAAAAAAAAAAAAAAA==

> <PUBCHEM_IUPAC_OPENEYE_NAME>
2-[[5-hydroxy-7-(hydroxymethyl)-4a-[3,4,5-trihydroxy-6-(hydroxymethyl)tetrahydropyran-2-yl]oxy-5,7a-dihydro-1H-cyclopenta[c]pyran-1-yl]oxy]-6-(hydroxymethyl)tetrahydropyran-3,4,5-triol

> <PUBCHEM_IUPAC_CAS_NAME>
2-[[5-hydroxy-7-(hydroxymethyl)-4a-[[3,4,5-trihydroxy-6-(hydroxymethyl)-2-oxanyl]oxy]-5,7a-dihydro-1H-cyclopenta[c]pyran-1-yl]oxy]-6-(hydroxymethyl)oxane-3,4,5-triol

> <PUBCHEM_IUPAC_NAME_MARKUP>
2-[[5-hydroxy-7-(hydroxymethyl)-4<I>a</I>-[3,4,5-trihydroxy-6-(hydroxymethyl)oxan-2-yl]oxy-5,7<I>a</I>-dihydro-1<I>H</I>-cyclopenta[c]pyran-1-yl]oxy]-6-(hydroxymethyl)oxane-3,4,5-triol

> <PUBCHEM_IUPAC_NAME>
2-[[5-hydroxy-7-(hydroxymethyl)-4a-[3,4,5-trihydroxy-6-(hydroxymethyl)oxan-2-yl]oxy-5,7a-dihydro-1H-cyclopenta[c]pyran-1-yl]oxy]-6-(hydroxymethyl)oxane-3,4,5-triol

> <PUBCHEM_IUPAC_SYSTEMATIC_NAME>
2-(hydroxymethyl)-6-[[7-(hydroxymethyl)-4a-[6-(hydroxymethyl)-3,4,5-tris(oxidanyl)oxan-2-yl]oxy-5-oxidanyl-5,7a-dihydro-1H-cyclopenta[c]pyran-1-yl]oxy]oxane-3,4,5-triol

> <PUBCHEM_IUPAC_TRADITIONAL_NAME>
2-[[5-hydroxy-7-methylol-4a-(3,4,5-trihydroxy-6-methylol-tetrahydropyran-2-yl)oxy-5,7a-dihydro-1H-cyclopenta[c]pyran-1-yl]oxy]-6-methylol-tetrahydropyran-3,4,5-triol

> <PUBCHEM_IUPAC_INCHI>
InChI=1S/C21H32O15/c22-4-7-3-10(25)21(36-20-17(31)15(29)13(27)9(6-24)34-20)1-2-32-18(11(7)21)35-19-16(30)14(28)12(26)8(5-23)33-19/h1-3,8-20,22-31H,4-6H2

> <PUBCHEM_IUPAC_INCHIKEY>
LZKBAGSBRBMVBE-UHFFFAOYSA-N

> <PUBCHEM_XLOGP3_AA>
-5.7

> <PUBCHEM_EXACT_MASS>
524.17412031

> <PUBCHEM_MOLECULAR_FORMULA>
C21H32O15

> <PUBCHEM_MOLECULAR_WEIGHT>
524.5

> <PUBCHEM_OPENEYE_CAN_SMILES>
C1=COC(C2C1(C(C=C2CO)O)OC3C(C(C(C(O3)CO)O)O)O)OC4C(C(C(C(O4)CO)O)O)O

> <PUBCHEM_OPENEYE_ISO_SMILES>
C1=COC(C2C1(C(C=C2CO)O)OC3C(C(C(C(O3)CO)O)O)O)OC4C(C(C(C(O4)CO)O)O)O

> <PUBCHEM_CACTVS_TPSA>
248

> <PUBCHEM_MONOISOTOPIC_WEIGHT>
524.17412031

> <PUBCHEM_TOTAL_CHARGE>
0

> <PUBCHEM_HEAVY_ATOM_COUNT>
36

> <PUBCHEM_ATOM_DEF_STEREO_COUNT>
0

> <PUBCHEM_ATOM_UDEF_STEREO_COUNT>
14

> <PUBCHEM_BOND_DEF_STEREO_COUNT>
0

> <PUBCHEM_BOND_UDEF_STEREO_COUNT>
0

> <PUBCHEM_ISOTOPIC_ATOM_COUNT>
0

> <PUBCHEM_COMPONENT_COUNT>
1

> <PUBCHEM_CACTVS_TAUTO_COUNT>
-1

> <PUBCHEM_COORDINATE_TYPE>
1
5
255

> <PUBCHEM_BONDANNOTATIONS>
16  1  3
23  1  3
28  10  3
31  11  3
32  12  3
33  13  3
17  20  3
19  2  3
25  2  3
30  35  3
34  36  3
18  5  3
24  7  3
26  8  3

$$$$
