 
  -OEChem-10192103542D

 64 65  0     1  0  0  0  0  0999 V2000
    6.4680    0.8150    0.0000 O   0  0  0  0  0  0  0  0  0  0  0  0
    8.3652   -0.7987    0.0000 O   0  0  0  0  0  0  0  0  0  0  0  0
    5.5409   -3.6562    0.0000 O   0  0  0  0  0  0  0  0  0  0  0  0
    9.2972    3.6623    0.0000 O   0  0  0  0  0  0  0  0  0  0  0  0
    2.6064   -4.2799    0.0000 O   0  0  0  0  0  0  0  0  0  0  0  0
   12.2327    4.2810    0.0000 O   0  0  0  0  0  0  0  0  0  0  0  0
    2.2463   -2.5857    0.0000 O   0  0  0  0  0  0  0  0  0  0  0  0
   12.5899    2.5861    0.0000 O   0  0  0  0  0  0  0  0  0  0  0  0
    7.4190   -0.4940    0.0000 C   0  0  1  0  0  0  0  0  0  0  0  0
    7.4190    0.5060    0.0000 C   0  0  1  0  0  0  0  0  0  0  0  0
    6.4680   -0.8030    0.0000 C   0  0  2  0  0  0  0  0  0  0  0  0
    8.3652    0.8107    0.0000 C   0  0  1  0  0  0  0  0  0  0  0  0
    5.8802    0.0060    0.0000 C   0  0  0  0  0  0  0  0  0  0  0  0
    8.9488    0.0060    0.0000 C   0  0  0  0  0  0  0  0  0  0  0  0
    6.1589   -1.7541    0.0000 C   0  0  0  0  0  0  0  0  0  0  0  0
    8.6759    1.7613    0.0000 C   0  0  0  0  0  0  0  0  0  0  0  0
    5.1808   -1.9620    0.0000 C   0  0  3  0  0  0  0  0  0  0  0  0
    9.6544    1.9675    0.0000 C   0  0  3  0  0  0  0  0  0  0  0  0
    4.8718   -2.9130    0.0000 C   0  0  0  0  0  0  0  0  0  0  0  0
    9.9650    2.9180    0.0000 C   0  0  0  0  0  0  0  0  0  0  0  0
    4.5117   -1.2188    0.0000 C   0  0  0  0  0  0  0  0  0  0  0  0
   10.3222    1.2232    0.0000 C   0  0  0  0  0  0  0  0  0  0  0  0
    3.8936   -3.1209    0.0000 C   0  0  0  0  0  0  0  0  0  0  0  0
   10.9436    3.1242    0.0000 C   0  0  0  0  0  0  0  0  0  0  0  0
    4.1015   -4.0991    0.0000 C   0  0  0  0  0  0  0  0  0  0  0  0
    3.6857   -2.1428    0.0000 C   0  0  0  0  0  0  0  0  0  0  0  0
   10.7373    4.1027    0.0000 C   0  0  0  0  0  0  0  0  0  0  0  0
   11.1498    2.1457    0.0000 C   0  0  0  0  0  0  0  0  0  0  0  0
    2.9155   -3.3288    0.0000 C   0  0  0  0  0  0  0  0  0  0  0  0
   11.9221    3.3304    0.0000 C   0  0  0  0  0  0  0  0  0  0  0  0
    7.4201   -1.3440    0.0000 H   0  0  0  0  0  0  0  0  0  0  0  0
    7.4201    1.3560    0.0000 H   0  0  0  0  0  0  0  0  0  0  0  0
    5.8556   -0.9000    0.0000 H   0  0  0  0  0  0  0  0  0  0  0  0
    8.9777    0.9069    0.0000 H   0  0  0  0  0  0  0  0  0  0  0  0
    5.4194    0.4209    0.0000 H   0  0  0  0  0  0  0  0  0  0  0  0
    5.4194   -0.4088    0.0000 H   0  0  0  0  0  0  0  0  0  0  0  0
    9.4097   -0.4087    0.0000 H   0  0  0  0  0  0  0  0  0  0  0  0
    9.4097    0.4207    0.0000 H   0  0  0  0  0  0  0  0  0  0  0  0
    6.1806   -2.3737    0.0000 H   0  0  0  0  0  0  0  0  0  0  0  0
    6.7729   -1.8404    0.0000 H   0  0  0  0  0  0  0  0  0  0  0  0
    8.6553    2.3809    0.0000 H   0  0  0  0  0  0  0  0  0  0  0  0
    8.0621    1.8486    0.0000 H   0  0  0  0  0  0  0  0  0  0  0  0
    5.3724   -1.3723    0.0000 H   0  0  0  0  0  0  0  0  0  0  0  0
    9.4618    1.3782    0.0000 H   0  0  0  0  0  0  0  0  0  0  0  0
    4.9724   -0.8040    0.0000 H   0  0  0  0  0  0  0  0  0  0  0  0
    4.0968   -0.7581    0.0000 H   0  0  0  0  0  0  0  0  0  0  0  0
    4.0509   -1.6337    0.0000 H   0  0  0  0  0  0  0  0  0  0  0  0
    9.8608    0.8091    0.0000 H   0  0  0  0  0  0  0  0  0  0  0  0
   10.7363    0.7617    0.0000 H   0  0  0  0  0  0  0  0  0  0  0  0
   10.7837    1.6372    0.0000 H   0  0  0  0  0  0  0  0  0  0  0  0
    3.4951   -4.2280    0.0000 H   0  0  0  0  0  0  0  0  0  0  0  0
    4.2304   -4.7055    0.0000 H   0  0  0  0  0  0  0  0  0  0  0  0
    4.7080   -3.9702    0.0000 H   0  0  0  0  0  0  0  0  0  0  0  0
    4.2922   -2.0139    0.0000 H   0  0  0  0  0  0  0  0  0  0  0  0
    3.5568   -1.5363    0.0000 H   0  0  0  0  0  0  0  0  0  0  0  0
    3.0792   -2.2717    0.0000 H   0  0  0  0  0  0  0  0  0  0  0  0
   11.3440    4.2306    0.0000 H   0  0  0  0  0  0  0  0  0  0  0  0
   10.6095    4.7094    0.0000 H   0  0  0  0  0  0  0  0  0  0  0  0
   10.1307    3.9749    0.0000 H   0  0  0  0  0  0  0  0  0  0  0  0
   10.5431    2.0179    0.0000 H   0  0  0  0  0  0  0  0  0  0  0  0
   11.2776    1.5390    0.0000 H   0  0  0  0  0  0  0  0  0  0  0  0
   11.7564    2.2736    0.0000 H   0  0  0  0  0  0  0  0  0  0  0  0
    2.0000   -4.4088    0.0000 H   0  0  0  0  0  0  0  0  0  0  0  0
   12.8394    4.4088    0.0000 H   0  0  0  0  0  0  0  0  0  0  0  0
  1 10  1  0  0  0  0
  1 13  1  0  0  0  0
  2  9  1  0  0  0  0
  2 14  1  0  0  0  0
  3 19  2  0  0  0  0
  4 20  2  0  0  0  0
  5 29  1  0  0  0  0
  5 63  1  0  0  0  0
  6 30  1  0  0  0  0
  6 64  1  0  0  0  0
  7 29  2  0  0  0  0
  8 30  2  0  0  0  0
  9 10  1  0  0  0  0
  9 11  1  0  0  0  0
  9 31  1  1  0  0  0
 10 12  1  0  0  0  0
 10 32  1  1  0  0  0
 11 13  1  0  0  0  0
 11 15  1  1  0  0  0
 11 33  1  0  0  0  0
 12 14  1  0  0  0  0
 12 16  1  6  0  0  0
 12 34  1  0  0  0  0
 13 35  1  0  0  0  0
 13 36  1  0  0  0  0
 14 37  1  0  0  0  0
 14 38  1  0  0  0  0
 15 17  1  0  0  0  0
 15 39  1  0  0  0  0
 15 40  1  0  0  0  0
 16 18  1  0  0  0  0
 16 41  1  0  0  0  0
 16 42  1  0  0  0  0
 17 19  1  0  0  0  0
 17 21  1  0  0  0  0
 17 43  1  0  0  0  0
 18 20  1  0  0  0  0
 18 22  1  0  0  0  0
 18 44  1  0  0  0  0
 19 23  1  0  0  0  0
 20 24  1  0  0  0  0
 21 45  1  0  0  0  0
 21 46  1  0  0  0  0
 21 47  1  0  0  0  0
 22 48  1  0  0  0  0
 22 49  1  0  0  0  0
 22 50  1  0  0  0  0
 23 25  1  0  0  0  0
 23 26  1  0  0  0  0
 23 29  1  0  0  0  0
 24 27  1  0  0  0  0
 24 28  1  0  0  0  0
 24 30  1  0  0  0  0
 25 51  1  0  0  0  0
 25 52  1  0  0  0  0
 25 53  1  0  0  0  0
 26 54  1  0  0  0  0
 26 55  1  0  0  0  0
 26 56  1  0  0  0  0
 27 57  1  0  0  0  0
 27 58  1  0  0  0  0
 27 59  1  0  0  0  0
 28 60  1  0  0  0  0
 28 61  1  0  0  0  0
 28 62  1  0  0  0  0
M  END
> <PUBCHEM_COMPOUND_CID>
67971967

> <PUBCHEM_COMPOUND_CANONICALIZED>
1

> <PUBCHEM_CACTVS_COMPLEXITY>
650

> <PUBCHEM_CACTVS_HBOND_ACCEPTOR>
8

> <PUBCHEM_CACTVS_HBOND_DONOR>
2

> <PUBCHEM_CACTVS_ROTATABLE_BOND>
10

> <PUBCHEM_CACTVS_SUBSKEYS>
AAADcfB4PAAAAAAAAAAAAAAAAAAAASJAAAAAAAAAAAASAAAAAAAAGgAACAAADxSggAICCAAABgAIAICQCAAAAAAAAAAAAAEAAAABABYIAAACQAAFIAACAAGIzPDPAAAAAAAAAAAAAAAAAAAAAAAAAAAAAA==

> <PUBCHEM_IUPAC_OPENEYE_NAME>
5-[(3S,3aR,6R,6aR)-6-(4-carboxy-2,4-dimethyl-3-oxo-pentyl)-2,3,3a,5,6,6a-hexahydrofuro[3,2-b]furan-3-yl]-2,2,4-trimethyl-3-oxo-pentanoic acid

> <PUBCHEM_IUPAC_CAS_NAME>
5-[(3S,3aR,6R,6aR)-6-(4-carboxy-2,4-dimethyl-3-oxopentyl)-2,3,3a,5,6,6a-hexahydrofuro[3,2-b]furan-3-yl]-2,2,4-trimethyl-3-oxopentanoic acid

> <PUBCHEM_IUPAC_NAME_MARKUP>
5-[(3<I>S</I>,3<I>a</I><I>R</I>,6<I>R</I>,6<I>a</I><I>R</I>)-6-(4-carboxy-2,4-dimethyl-3-oxopentyl)-2,3,3<I>a</I>,5,6,6<I>a</I>-hexahydrofuro[3,2-b]furan-3-yl]-2,2,4-trimethyl-3-oxopentanoic acid

> <PUBCHEM_IUPAC_NAME>
5-[(3S,3aR,6R,6aR)-6-(4-carboxy-2,4-dimethyl-3-oxopentyl)-2,3,3a,5,6,6a-hexahydrofuro[3,2-b]furan-3-yl]-2,2,4-trimethyl-3-oxopentanoic acid

> <PUBCHEM_IUPAC_SYSTEMATIC_NAME>
5-[(3S,3aR,6R,6aR)-6-[2,4,4-trimethyl-5-oxidanyl-3,5-bis(oxidanylidene)pentyl]-2,3,3a,5,6,6a-hexahydrofuro[3,2-b]furan-3-yl]-2,2,4-trimethyl-3-oxidanylidene-pentanoic acid

> <PUBCHEM_IUPAC_TRADITIONAL_NAME>
5-[(3S,3aR,6R,6aR)-6-(4-carboxy-3-keto-2,4-dimethyl-pentyl)-2,3,3a,5,6,6a-hexahydrofuro[3,2-b]furan-3-yl]-3-keto-2,2,4-trimethyl-valeric acid

> <PUBCHEM_IUPAC_INCHI>
InChI=1S/C22H34O8/c1-11(17(23)21(3,4)19(25)26)7-13-9-29-16-14(10-30-15(13)16)8-12(2)18(24)22(5,6)20(27)28/h11-16H,7-10H2,1-6H3,(H,25,26)(H,27,28)/t11?,12?,13-,14+,15-,16-/m1/s1

> <PUBCHEM_IUPAC_INCHIKEY>
XUJUWWMREPOQBL-URRAEIRZSA-N

> <PUBCHEM_XLOGP3_AA>
2.5

> <PUBCHEM_EXACT_MASS>
426.22536804

> <PUBCHEM_MOLECULAR_FORMULA>
C22H34O8

> <PUBCHEM_MOLECULAR_WEIGHT>
426.5

> <PUBCHEM_OPENEYE_CAN_SMILES>
CC(CC1COC2C1OCC2CC(C)C(=O)C(C)(C)C(=O)O)C(=O)C(C)(C)C(=O)O

> <PUBCHEM_OPENEYE_ISO_SMILES>
CC(C[C@H]1CO[C@H]2[C@@H]1OC[C@H]2CC(C)C(=O)C(C)(C)C(=O)O)C(=O)C(C)(C)C(=O)O

> <PUBCHEM_CACTVS_TPSA>
127

> <PUBCHEM_MONOISOTOPIC_WEIGHT>
426.22536804

> <PUBCHEM_TOTAL_CHARGE>
0

> <PUBCHEM_HEAVY_ATOM_COUNT>
30

> <PUBCHEM_ATOM_DEF_STEREO_COUNT>
4

> <PUBCHEM_ATOM_UDEF_STEREO_COUNT>
2

> <PUBCHEM_BOND_DEF_STEREO_COUNT>
0

> <PUBCHEM_BOND_UDEF_STEREO_COUNT>
0

> <PUBCHEM_ISOTOPIC_ATOM_COUNT>
0

> <PUBCHEM_COMPONENT_COUNT>
1

> <PUBCHEM_CACTVS_TAUTO_COUNT>
-1

> <PUBCHEM_COORDINATE_TYPE>
1
5
255

> <PUBCHEM_BONDANNOTATIONS>
10  32  5
11  15  5
12  16  6
17  21  3
18  22  3
9  31  5

$$$$
