 
  -OEChem-10192103352D

 30 30  0     1  0  0  0  0  0999 V2000
    5.0929    0.4639    0.0000 O   0  0  0  0  0  0  0  0  0  0  0  0
    6.8530    0.1851    0.0000 O   0  0  0  0  0  0  0  0  0  0  0  0
    4.0051   -1.8840    0.0000 O   0  0  0  0  0  0  0  0  0  0  0  0
    6.1807   -1.8840    0.0000 O   0  0  0  0  0  0  0  0  0  0  0  0
    2.5896   -0.4840    0.0000 O   0  0  0  0  0  0  0  0  0  0  0  0
    2.1738    1.4722    0.0000 O   0  0  0  0  0  0  0  0  0  0  0  0
    3.8680    1.8324    0.0000 O   0  0  0  0  0  0  0  0  0  0  0  0
    4.2839   -0.1239    0.0000 C   0  0  1  0  0  0  0  0  0  0  0  0
    4.5929   -1.0750    0.0000 C   0  0  1  0  0  0  0  0  0  0  0  0
    5.5929   -1.0750    0.0000 C   0  0  1  0  0  0  0  0  0  0  0  0
    5.9019   -0.1239    0.0000 C   0  0  2  0  0  0  0  0  0  0  0  0
    3.3328    0.1851    0.0000 C   0  0  1  0  0  0  0  0  0  0  0  0
    3.1249    1.1632    0.0000 C   0  0  0  0  0  0  0  0  0  0  0  0
    7.0609    1.1632    0.0000 C   0  0  0  0  0  0  0  0  0  0  0  0
    8.0119    1.4722    0.0000 C   0  0  0  0  0  0  0  0  0  0  0  0
    8.2198    2.4504    0.0000 C   0  0  0  0  0  0  0  0  0  0  0  0
    4.1509    0.7156    0.0000 H   0  0  0  0  0  0  0  0  0  0  0  0
    3.9805   -0.9780    0.0000 H   0  0  0  0  0  0  0  0  0  0  0  0
    5.3114   -1.6274    0.0000 H   0  0  0  0  0  0  0  0  0  0  0  0
    6.3403   -0.5623    0.0000 H   0  0  0  0  0  0  0  0  0  0  0  0
    3.4617   -0.4214    0.0000 H   0  0  0  0  0  0  0  0  0  0  0  0
    4.2573   -2.4504    0.0000 H   0  0  0  0  0  0  0  0  0  0  0  0
    6.7973   -1.8192    0.0000 H   0  0  0  0  0  0  0  0  0  0  0  0
    2.0000   -0.2925    0.0000 H   0  0  0  0  0  0  0  0  0  0  0  0
    6.9746    1.7772    0.0000 H   0  0  0  0  0  0  0  0  0  0  0  0
    6.4412    1.1849    0.0000 H   0  0  0  0  0  0  0  0  0  0  0  0
    8.4727    1.0574    0.0000 H   0  0  0  0  0  0  0  0  0  0  0  0
    2.0449    2.0787    0.0000 H   0  0  0  0  0  0  0  0  0  0  0  0
    8.8095    2.6420    0.0000 H   0  0  0  0  0  0  0  0  0  0  0  0
    7.7591    2.8653    0.0000 H   0  0  0  0  0  0  0  0  0  0  0  0
  1  8  1  0  0  0  0
  1 11  1  0  0  0  0
 11  2  1  6  0  0  0
  2 14  1  0  0  0  0
  9  3  1  1  0  0  0
  3 22  1  0  0  0  0
 10  4  1  1  0  0  0
  4 23  1  0  0  0  0
 12  5  1  6  0  0  0
  5 24  1  0  0  0  0
  6 13  1  0  0  0  0
  6 28  1  0  0  0  0
  7 13  2  0  0  0  0
  8  9  1  0  0  0  0
  8 12  1  0  0  0  0
  8 17  1  6  0  0  0
  9 10  1  0  0  0  0
  9 18  1  0  0  0  0
 10 11  1  0  0  0  0
 10 19  1  0  0  0  0
 11 20  1  0  0  0  0
 12 13  1  0  0  0  0
 12 21  1  0  0  0  0
 14 15  1  0  0  0  0
 14 25  1  0  0  0  0
 14 26  1  0  0  0  0
 15 16  2  0  0  0  0
 15 27  1  0  0  0  0
 16 29  1  0  0  0  0
 16 30  1  0  0  0  0
M  END
> <PUBCHEM_COMPOUND_CID>
135354223

> <PUBCHEM_COMPOUND_CANONICALIZED>
1

> <PUBCHEM_CACTVS_COMPLEXITY>
267

> <PUBCHEM_CACTVS_HBOND_ACCEPTOR>
7

> <PUBCHEM_CACTVS_HBOND_DONOR>
4

> <PUBCHEM_CACTVS_ROTATABLE_BOND>
5

> <PUBCHEM_CACTVS_SUBSKEYS>
AAADccBwOAAAAAAAAAAAAAAAAAAAASAAAAAAAAAAAAAAAAAAAAAAGgAACAAACBSwgAMACAAABgCIACDSCAIAAAAAAAAIAAFAAAARFBYAIQAiQAAFIAAHIAHKbAxAAAAAAAAAAAAAAAAAAAAAAAAAAAAAAA==

> <PUBCHEM_IUPAC_OPENEYE_NAME>
(2S)-2-[(2S,3R,4S,5S)-5-allyloxy-3,4-dihydroxy-tetrahydrofuran-2-yl]-2-hydroxy-acetic acid

> <PUBCHEM_IUPAC_CAS_NAME>
(2S)-2-[(2S,3R,4S,5S)-3,4-dihydroxy-5-prop-2-enoxy-2-oxolanyl]-2-hydroxyacetic acid

> <PUBCHEM_IUPAC_NAME_MARKUP>
(2<I>S</I>)-2-[(2<I>S</I>,3<I>R</I>,4<I>S</I>,5<I>S</I>)-3,4-dihydroxy-5-prop-2-enoxyoxolan-2-yl]-2-hydroxyacetic acid

> <PUBCHEM_IUPAC_NAME>
(2S)-2-[(2S,3R,4S,5S)-3,4-dihydroxy-5-prop-2-enoxyoxolan-2-yl]-2-hydroxyacetic acid

> <PUBCHEM_IUPAC_SYSTEMATIC_NAME>
(2S)-2-[(2S,3R,4S,5S)-3,4-bis(oxidanyl)-5-prop-2-enoxy-oxolan-2-yl]-2-oxidanyl-ethanoic acid

> <PUBCHEM_IUPAC_TRADITIONAL_NAME>
(2S)-2-[(2S,3R,4S,5S)-5-allyloxy-3,4-dihydroxy-tetrahydrofuran-2-yl]-2-hydroxy-acetic acid

> <PUBCHEM_IUPAC_INCHI>
InChI=1S/C9H14O7/c1-2-3-15-9-5(11)4(10)7(16-9)6(12)8(13)14/h2,4-7,9-12H,1,3H2,(H,13,14)/t4-,5+,6+,7+,9+/m1/s1

> <PUBCHEM_IUPAC_INCHIKEY>
VWISRSGIRJGSCB-QZIAOZNMSA-N

> <PUBCHEM_XLOGP3_AA>
-1.2

> <PUBCHEM_EXACT_MASS>
234.07395278

> <PUBCHEM_MOLECULAR_FORMULA>
C9H14O7

> <PUBCHEM_MOLECULAR_WEIGHT>
234.20

> <PUBCHEM_OPENEYE_CAN_SMILES>
C=CCOC1C(C(C(O1)C(C(=O)O)O)O)O

> <PUBCHEM_OPENEYE_ISO_SMILES>
C=CCO[C@@H]1[C@H]([C@H]([C@H](O1)[C@@H](C(=O)O)O)O)O

> <PUBCHEM_CACTVS_TPSA>
116

> <PUBCHEM_MONOISOTOPIC_WEIGHT>
234.07395278

> <PUBCHEM_TOTAL_CHARGE>
0

> <PUBCHEM_HEAVY_ATOM_COUNT>
16

> <PUBCHEM_ATOM_DEF_STEREO_COUNT>
5

> <PUBCHEM_ATOM_UDEF_STEREO_COUNT>
0

> <PUBCHEM_BOND_DEF_STEREO_COUNT>
0

> <PUBCHEM_BOND_UDEF_STEREO_COUNT>
0

> <PUBCHEM_ISOTOPIC_ATOM_COUNT>
0

> <PUBCHEM_COMPONENT_COUNT>
1

> <PUBCHEM_CACTVS_TAUTO_COUNT>
-1

> <PUBCHEM_COORDINATE_TYPE>
1
5
255

> <PUBCHEM_BONDANNOTATIONS>
11  2  6
9  3  5
10  4  5
12  5  6
8  17  6

$$$$
