 
  -OEChem-10192103322D

 82 82  0     1  0  0  0  0  0999 V2000
    7.1962    0.5000    0.0000 P   0  0  3  0  0  0  0  0  0  0  0  0
    3.7320   -4.5000    0.0000 P   0  3  0  0  0  0  0  0  0  0  0  0
    4.5981   -3.0000    0.0000 O   0  0  0  0  0  0  0  0  0  0  0  0
    6.3301   -0.0000    0.0000 O   0  0  0  0  0  0  0  0  0  0  0  0
    4.5981   -1.0000    0.0000 O   0  0  0  0  0  0  0  0  0  0  0  0
    6.3301   -4.0000    0.0000 O   0  0  0  0  0  0  0  0  0  0  0  0
    8.0622   -1.0000    0.0000 O   0  0  0  0  0  0  0  0  0  0  0  0
    8.0622   -3.0000    0.0000 O   0  0  0  0  0  0  0  0  0  0  0  0
    8.0622    1.0000    0.0000 O   0  0  0  0  0  0  0  0  0  0  0  0
    6.6962    1.3660    0.0000 O   0  0  0  0  0  0  0  0  0  0  0  0
    7.6962   -0.3660    0.0000 O   0  0  0  0  0  0  0  0  0  0  0  0
    2.8660   -5.0000    0.0000 O   0  0  0  0  0  0  0  0  0  0  0  0
    4.2320   -5.3660    0.0000 O   0  0  0  0  0  0  0  0  0  0  0  0
    3.2320   -3.6340    0.0000 O   0  5  0  0  0  0  0  0  0  0  0  0
    8.9282    3.5000    0.0000 O   0  0  0  0  0  0  0  0  0  0  0  0
   10.6603    2.5000    0.0000 O   0  0  0  0  0  0  0  0  0  0  0  0
   10.6603    3.5000    0.0000 O   0  0  0  0  0  0  0  0  0  0  0  0
   11.5263    1.0000    0.0000 O   0  0  0  0  0  0  0  0  0  0  0  0
    5.4641   -2.5000    0.0000 C   0  0  1  0  0  0  0  0  0  0  0  0
    6.3301   -1.0000    0.0000 C   0  0  2  0  0  0  0  0  0  0  0  0
    5.4641   -1.5000    0.0000 C   0  0  2  0  0  0  0  0  0  0  0  0
    6.3301   -3.0000    0.0000 C   0  0  2  0  0  0  0  0  0  0  0  0
    7.1962   -1.5000    0.0000 C   0  0  1  0  0  0  0  0  0  0  0  0
    7.1962   -2.5000    0.0000 C   0  0  1  0  0  0  0  0  0  0  0  0
    4.5981   -4.0000    0.0000 C   0  0  0  0  0  0  0  0  0  0  0  0
    8.0622    2.0000    0.0000 C   0  0  0  0  0  0  0  0  0  0  0  0
    8.9282    2.5000    0.0000 C   0  0  1  0  0  0  0  0  0  0  0  0
    2.8660   -6.0000    0.0000 C   0  0  0  0  0  0  0  0  0  0  0  0
    5.2320   -5.3660    0.0000 C   0  0  0  0  0  0  0  0  0  0  0  0
    9.7942    2.0000    0.0000 C   0  0  0  0  0  0  0  0  0  0  0  0
    2.0000   -6.5000    0.0000 C   0  0  0  0  0  0  0  0  0  0  0  0
    5.7320   -6.2320    0.0000 C   0  0  0  0  0  0  0  0  0  0  0  0
    9.7942    4.0000    0.0000 C   0  0  0  0  0  0  0  0  0  0  0  0
    9.7942    5.0000    0.0000 C   0  0  0  0  0  0  0  0  0  0  0  0
   11.5263    2.0000    0.0000 C   0  0  0  0  0  0  0  0  0  0  0  0
   10.6603    5.5000    0.0000 C   0  0  0  0  0  0  0  0  0  0  0  0
   12.3923    2.5000    0.0000 C   0  0  0  0  0  0  0  0  0  0  0  0
   13.2583    2.0000    0.0000 C   0  0  0  0  0  0  0  0  0  0  0  0
   10.6603    6.5000    0.0000 C   0  0  0  0  0  0  0  0  0  0  0  0
   14.1244    2.5000    0.0000 C   0  0  0  0  0  0  0  0  0  0  0  0
    5.4641   -3.1200    0.0000 H   0  0  0  0  0  0  0  0  0  0  0  0
    6.8671   -0.6900    0.0000 H   0  0  0  0  0  0  0  0  0  0  0  0
    5.4641   -0.8800    0.0000 H   0  0  0  0  0  0  0  0  0  0  0  0
    6.8671   -3.3100    0.0000 H   0  0  0  0  0  0  0  0  0  0  0  0
    7.7331   -1.8100    0.0000 H   0  0  0  0  0  0  0  0  0  0  0  0
    7.1962   -3.1200    0.0000 H   0  0  0  0  0  0  0  0  0  0  0  0
    4.0611   -1.3100    0.0000 H   0  0  0  0  0  0  0  0  0  0  0  0
    6.8671   -4.3100    0.0000 H   0  0  0  0  0  0  0  0  0  0  0  0
    8.5991   -1.3100    0.0000 H   0  0  0  0  0  0  0  0  0  0  0  0
    8.0622   -3.6200    0.0000 H   0  0  0  0  0  0  0  0  0  0  0  0
    4.8101   -4.5826    0.0000 H   0  0  0  0  0  0  0  0  0  0  0  0
    5.2087   -3.8923    0.0000 H   0  0  0  0  0  0  0  0  0  0  0  0
    6.0762    1.3660    0.0000 H   0  0  0  0  0  0  0  0  0  0  0  0
    7.8501    2.5826    0.0000 H   0  0  0  0  0  0  0  0  0  0  0  0
    7.4516    1.8923    0.0000 H   0  0  0  0  0  0  0  0  0  0  0  0
    9.4651    2.8100    0.0000 H   0  0  0  0  0  0  0  0  0  0  0  0
    3.0781   -6.5826    0.0000 H   0  0  0  0  0  0  0  0  0  0  0  0
    3.4766   -5.8923    0.0000 H   0  0  0  0  0  0  0  0  0  0  0  0
    5.8147   -5.1540    0.0000 H   0  0  0  0  0  0  0  0  0  0  0  0
    5.1244   -4.7554    0.0000 H   0  0  0  0  0  0  0  0  0  0  0  0
    9.3957    1.5250    0.0000 H   0  0  0  0  0  0  0  0  0  0  0  0
   10.1928    1.5250    0.0000 H   0  0  0  0  0  0  0  0  0  0  0  0
    1.6900   -5.9631    0.0000 H   0  0  0  0  0  0  0  0  0  0  0  0
    1.4631   -6.8100    0.0000 H   0  0  0  0  0  0  0  0  0  0  0  0
    2.3100   -7.0369    0.0000 H   0  0  0  0  0  0  0  0  0  0  0  0
    5.1951   -6.5420    0.0000 H   0  0  0  0  0  0  0  0  0  0  0  0
    6.0420   -6.7690    0.0000 H   0  0  0  0  0  0  0  0  0  0  0  0
    6.2690   -5.9220    0.0000 H   0  0  0  0  0  0  0  0  0  0  0  0
    9.5822    5.5826    0.0000 H   0  0  0  0  0  0  0  0  0  0  0  0
    9.1836    4.8923    0.0000 H   0  0  0  0  0  0  0  0  0  0  0  0
   10.8723    4.9174    0.0000 H   0  0  0  0  0  0  0  0  0  0  0  0
   11.2708    5.6077    0.0000 H   0  0  0  0  0  0  0  0  0  0  0  0
   12.7908    2.9750    0.0000 H   0  0  0  0  0  0  0  0  0  0  0  0
   11.9938    2.9750    0.0000 H   0  0  0  0  0  0  0  0  0  0  0  0
   12.8598    1.5250    0.0000 H   0  0  0  0  0  0  0  0  0  0  0  0
   13.6569    1.5250    0.0000 H   0  0  0  0  0  0  0  0  0  0  0  0
   11.2803    6.5000    0.0000 H   0  0  0  0  0  0  0  0  0  0  0  0
   10.6603    7.1200    0.0000 H   0  0  0  0  0  0  0  0  0  0  0  0
   10.0403    6.5000    0.0000 H   0  0  0  0  0  0  0  0  0  0  0  0
   14.4344    1.9631    0.0000 H   0  0  0  0  0  0  0  0  0  0  0  0
   14.6613    2.8100    0.0000 H   0  0  0  0  0  0  0  0  0  0  0  0
   13.8144    3.0369    0.0000 H   0  0  0  0  0  0  0  0  0  0  0  0
  1  4  1  0  0  0  0
  1  9  1  0  0  0  0
  1 10  1  0  0  0  0
  1 11  2  0  0  0  0
  2 12  1  0  0  0  0
  2 13  1  0  0  0  0
  2 14  1  0  0  0  0
  2 25  1  0  0  0  0
 19  3  1  1  0  0  0
  3 25  1  0  0  0  0
 20  4  1  1  0  0  0
 21  5  1  1  0  0  0
  5 47  1  0  0  0  0
 22  6  1  6  0  0  0
  6 48  1  0  0  0  0
 23  7  1  6  0  0  0
  7 49  1  0  0  0  0
 24  8  1  1  0  0  0
  8 50  1  0  0  0  0
  9 26  1  0  0  0  0
 10 53  1  0  0  0  0
 12 28  1  0  0  0  0
 13 29  1  0  0  0  0
 27 15  1  6  0  0  0
 15 33  1  0  0  0  0
 16 30  1  0  0  0  0
 16 35  1  0  0  0  0
 17 33  2  0  0  0  0
 18 35  2  0  0  0  0
 19 21  1  0  0  0  0
 19 22  1  0  0  0  0
 19 41  1  0  0  0  0
 20 21  1  0  0  0  0
 20 23  1  0  0  0  0
 20 42  1  0  0  0  0
 21 43  1  0  0  0  0
 22 24  1  0  0  0  0
 22 44  1  0  0  0  0
 23 24  1  0  0  0  0
 23 45  1  0  0  0  0
 24 46  1  0  0  0  0
 25 51  1  0  0  0  0
 25 52  1  0  0  0  0
 26 27  1  0  0  0  0
 26 54  1  0  0  0  0
 26 55  1  0  0  0  0
 27 30  1  0  0  0  0
 27 56  1  0  0  0  0
 28 31  1  0  0  0  0
 28 57  1  0  0  0  0
 28 58  1  0  0  0  0
 29 32  1  0  0  0  0
 29 59  1  0  0  0  0
 29 60  1  0  0  0  0
 30 61  1  0  0  0  0
 30 62  1  0  0  0  0
 31 63  1  0  0  0  0
 31 64  1  0  0  0  0
 31 65  1  0  0  0  0
 32 66  1  0  0  0  0
 32 67  1  0  0  0  0
 32 68  1  0  0  0  0
 33 34  1  0  0  0  0
 34 36  1  0  0  0  0
 34 69  1  0  0  0  0
 34 70  1  0  0  0  0
 35 37  1  0  0  0  0
 36 39  1  0  0  0  0
 36 71  1  0  0  0  0
 36 72  1  0  0  0  0
 37 38  1  0  0  0  0
 37 73  1  0  0  0  0
 37 74  1  0  0  0  0
 38 40  1  0  0  0  0
 38 75  1  0  0  0  0
 38 76  1  0  0  0  0
 39 77  1  0  0  0  0
 39 78  1  0  0  0  0
 39 79  1  0  0  0  0
 40 80  1  0  0  0  0
 40 81  1  0  0  0  0
 40 82  1  0  0  0  0
M  CHG  2   2   1  14  -1
M  END
> <PUBCHEM_COMPOUND_CID>
102385917

> <PUBCHEM_COMPOUND_CANONICALIZED>
1

> <PUBCHEM_CACTVS_COMPLEXITY>
810

> <PUBCHEM_CACTVS_HBOND_ACCEPTOR>
16

> <PUBCHEM_CACTVS_HBOND_DONOR>
5

> <PUBCHEM_CACTVS_ROTATABLE_BOND>
21

> <PUBCHEM_CACTVS_SUBSKEYS>
AAADcfB4PgMAAAAAAAAAAAAAAAAAAAAAAAAwAAAAAAAAAAAAAAAAGggACCAACBSggAICCAAABxAIQACQCIAAAAAAAAAAAAEAAAABEBIAAAACQAAFAAADAAHAYAwAAAAAAAAAAAACAAAQAACAAAAAAAAAAA==

> <PUBCHEM_IUPAC_OPENEYE_NAME>
[(2R)-2-butanoyloxy-3-[[(1S,2R,3R,4S,5S,6R)-3-[[diethoxy(oxido)phosphaniumyl]methoxy]-2,4,5,6-tetrahydroxy-cyclohexoxy]-hydroxy-phosphoryl]oxy-propyl] butanoate

> <PUBCHEM_IUPAC_CAS_NAME>
butanoic acid [(2R)-3-[[(1S,2R,3R,4S,5S,6R)-3-[[diethoxy(oxido)phosphiniumyl]methoxy]-2,4,5,6-tetrahydroxycyclohexyl]oxy-hydroxyphosphoryl]oxy-2-(1-oxobutoxy)propyl] ester

> <PUBCHEM_IUPAC_NAME_MARKUP>
[(2<I>R</I>)-2-butanoyloxy-3-[[(1<I>S</I>,2<I>R</I>,3<I>R</I>,4<I>S</I>,5<I>S</I>,6<I>R</I>)-3-[[diethoxy(oxido)phosphaniumyl]methoxy]-2,4,5,6-tetrahydroxycyclohexyl]oxy-hydroxyphosphoryl]oxypropyl] butanoate

> <PUBCHEM_IUPAC_NAME>
[(2R)-2-butanoyloxy-3-[[(1S,2R,3R,4S,5S,6R)-3-[[diethoxy(oxido)phosphaniumyl]methoxy]-2,4,5,6-tetrahydroxycyclohexyl]oxy-hydroxyphosphoryl]oxypropyl] butanoate

> <PUBCHEM_IUPAC_SYSTEMATIC_NAME>
[(2R)-2-butanoyloxy-3-[[(1S,2R,3R,4S,5S,6R)-3-[[diethoxy(oxidanidyl)phosphaniumyl]methoxy]-2,4,5,6-tetrakis(oxidanyl)cyclohexyl]oxy-oxidanyl-phosphoryl]oxy-propyl] butanoate

> <PUBCHEM_IUPAC_TRADITIONAL_NAME>
butyric acid [(2R)-2-butyryloxy-3-[[(1S,2R,3R,4S,5S,6R)-3-[[diethoxy(oxido)phosphiniumyl]methoxy]-2,4,5,6-tetrahydroxy-cyclohexoxy]-hydroxy-phosphoryl]oxy-propyl] ester

> <PUBCHEM_IUPAC_INCHI>
InChI=1S/C22H42O16P2/c1-5-9-15(23)32-11-14(37-16(24)10-6-2)12-36-40(30,31)38-22-19(27)17(25)18(26)21(20(22)28)33-13-39(29,34-7-3)35-8-4/h14,17-22,25-28H,5-13H2,1-4H3,(H,30,31)/t14-,17+,18+,19-,20-,21-,22+/m1/s1

> <PUBCHEM_IUPAC_INCHIKEY>
VXHUJXOAKBZZJI-ALBYGKQRSA-N

> <PUBCHEM_XLOGP3_AA>
-2.2

> <PUBCHEM_EXACT_MASS>
624.19480924

> <PUBCHEM_MOLECULAR_FORMULA>
C22H42O16P2

> <PUBCHEM_MOLECULAR_WEIGHT>
624.5

> <PUBCHEM_OPENEYE_CAN_SMILES>
CCCC(=O)OCC(COP(=O)(O)OC1C(C(C(C(C1O)OC[P+]([O-])(OCC)OCC)O)O)O)OC(=O)CCC

> <PUBCHEM_OPENEYE_ISO_SMILES>
CCCC(=O)OC[C@H](COP(=O)(O)O[C@H]1[C@@H]([C@H]([C@@H]([C@H]([C@H]1O)OC[P+]([O-])(OCC)OCC)O)O)O)OC(=O)CCC

> <PUBCHEM_CACTVS_TPSA>
240

> <PUBCHEM_MONOISOTOPIC_WEIGHT>
624.19480924

> <PUBCHEM_TOTAL_CHARGE>
0

> <PUBCHEM_HEAVY_ATOM_COUNT>
40

> <PUBCHEM_ATOM_DEF_STEREO_COUNT>
7

> <PUBCHEM_ATOM_UDEF_STEREO_COUNT>
0

> <PUBCHEM_BOND_DEF_STEREO_COUNT>
0

> <PUBCHEM_BOND_UDEF_STEREO_COUNT>
0

> <PUBCHEM_ISOTOPIC_ATOM_COUNT>
0

> <PUBCHEM_COMPONENT_COUNT>
1

> <PUBCHEM_CACTVS_TAUTO_COUNT>
-1

> <PUBCHEM_COORDINATE_TYPE>
1
5
255

> <PUBCHEM_BONDANNOTATIONS>
27  15  6
19  3  5
20  4  5
21  5  5
22  6  6
23  7  6
24  8  5

$$$$
