 
  -OEChem-10192104052D

 20 21  0     0  0  0  0  0  0999 V2000
    5.4920   -1.0467    0.0000 O   0  0  0  0  0  0  0  0  0  0  0  0
    2.0000    0.9879    0.0000 O   0  0  0  0  0  0  0  0  0  0  0  0
    2.0000   -1.0121    0.0000 O   0  0  0  0  0  0  0  0  0  0  0  0
    7.2622    1.0121    0.0000 O   0  0  0  0  0  0  0  0  0  0  0  0
    7.2622   -1.0362    0.0000 O   0  0  0  0  0  0  0  0  0  0  0  0
    4.5981    0.4879    0.0000 C   0  0  0  0  0  0  0  0  0  0  0  0
    4.5981   -0.5121    0.0000 C   0  0  0  0  0  0  0  0  0  0  0  0
    3.7320    0.9879    0.0000 C   0  0  0  0  0  0  0  0  0  0  0  0
    3.7320   -1.0121    0.0000 C   0  0  0  0  0  0  0  0  0  0  0  0
    5.4920    1.0226    0.0000 C   0  0  0  0  0  0  0  0  0  0  0  0
    2.8660    0.4879    0.0000 C   0  0  0  0  0  0  0  0  0  0  0  0
    2.8660   -0.5121    0.0000 C   0  0  0  0  0  0  0  0  0  0  0  0
    6.3981    0.5087    0.0000 C   0  0  0  0  0  0  0  0  0  0  0  0
    6.3981   -0.5329    0.0000 C   0  0  0  0  0  0  0  0  0  0  0  0
    3.7320    1.6079    0.0000 H   0  0  0  0  0  0  0  0  0  0  0  0
    3.7320   -1.6321    0.0000 H   0  0  0  0  0  0  0  0  0  0  0  0
    5.4848    1.6426    0.0000 H   0  0  0  0  0  0  0  0  0  0  0  0
    2.0000    1.6079    0.0000 H   0  0  0  0  0  0  0  0  0  0  0  0
    2.0000   -1.6321    0.0000 H   0  0  0  0  0  0  0  0  0  0  0  0
    7.2598    1.6321    0.0000 H   0  0  0  0  0  0  0  0  0  0  0  0
  1  7  1  0  0  0  0
  1 14  1  0  0  0  0
  2 11  1  0  0  0  0
  2 18  1  0  0  0  0
  3 12  1  0  0  0  0
  3 19  1  0  0  0  0
  4 13  1  0  0  0  0
  4 20  1  0  0  0  0
  5 14  2  0  0  0  0
  6  7  1  0  0  0  0
  6  8  2  0  0  0  0
  6 10  1  0  0  0  0
  7  9  2  0  0  0  0
  8 11  1  0  0  0  0
  8 15  1  0  0  0  0
  9 12  1  0  0  0  0
  9 16  1  0  0  0  0
 10 13  2  0  0  0  0
 10 17  1  0  0  0  0
 11 12  2  0  0  0  0
 13 14  1  0  0  0  0
M  END
> <PUBCHEM_COMPOUND_CID>
6483033

> <PUBCHEM_COMPOUND_CANONICALIZED>
1

> <PUBCHEM_CACTVS_COMPLEXITY>
285

> <PUBCHEM_CACTVS_HBOND_ACCEPTOR>
5

> <PUBCHEM_CACTVS_HBOND_DONOR>
3

> <PUBCHEM_CACTVS_ROTATABLE_BOND>
0

> <PUBCHEM_CACTVS_SUBSKEYS>
AAADcYBwOAAAAAAAAAAAAAAAAAAAAAAAAAAwQAAAAAAAAACBAAAAGgAACAAADASAmAAwDoAABgCIAiDSCAICCAAgIAAAiABGiMgNJyKGMRqCeiGlwBULuYfA4DwOIQABCAAIQABCAAIQABCAAAAAAAAAAA==

> <PUBCHEM_IUPAC_OPENEYE_NAME>
3,6,7-trihydroxychromen-2-one

> <PUBCHEM_IUPAC_CAS_NAME>
3,6,7-trihydroxy-1-benzopyran-2-one

> <PUBCHEM_IUPAC_NAME_MARKUP>
3,6,7-trihydroxychromen-2-one

> <PUBCHEM_IUPAC_NAME>
3,6,7-trihydroxychromen-2-one

> <PUBCHEM_IUPAC_SYSTEMATIC_NAME>
3,6,7-tris(oxidanyl)chromen-2-one

> <PUBCHEM_IUPAC_TRADITIONAL_NAME>
3,6,7-trihydroxycoumarin

> <PUBCHEM_IUPAC_INCHI>
InChI=1S/C9H6O5/c10-5-1-4-2-7(12)9(13)14-8(4)3-6(5)11/h1-3,10-12H

> <PUBCHEM_IUPAC_INCHIKEY>
LUODACDZXGGDIL-UHFFFAOYSA-N

> <PUBCHEM_XLOGP3_AA>
1.1

> <PUBCHEM_EXACT_MASS>
194.02152329

> <PUBCHEM_MOLECULAR_FORMULA>
C9H6O5

> <PUBCHEM_MOLECULAR_WEIGHT>
194.14

> <PUBCHEM_OPENEYE_CAN_SMILES>
C1=C2C=C(C(=O)OC2=CC(=C1O)O)O

> <PUBCHEM_OPENEYE_ISO_SMILES>
C1=C2C=C(C(=O)OC2=CC(=C1O)O)O

> <PUBCHEM_CACTVS_TPSA>
87

> <PUBCHEM_MONOISOTOPIC_WEIGHT>
194.02152329

> <PUBCHEM_TOTAL_CHARGE>
0

> <PUBCHEM_HEAVY_ATOM_COUNT>
14

> <PUBCHEM_ATOM_DEF_STEREO_COUNT>
0

> <PUBCHEM_ATOM_UDEF_STEREO_COUNT>
0

> <PUBCHEM_BOND_DEF_STEREO_COUNT>
0

> <PUBCHEM_BOND_UDEF_STEREO_COUNT>
0

> <PUBCHEM_ISOTOPIC_ATOM_COUNT>
0

> <PUBCHEM_COMPONENT_COUNT>
1

> <PUBCHEM_CACTVS_TAUTO_COUNT>
-1

> <PUBCHEM_COORDINATE_TYPE>
1
5
255

> <PUBCHEM_BONDANNOTATIONS>
1  14  8
1  7  8
10  13  8
11  12  8
13  14  8
6  10  8
6  7  8
6  8  8
7  9  8
8  11  8
9  12  8

$$$$
