 
  -OEChem-10192103412D

 64 65  0     1  0  0  0  0  0999 V2000
   10.3312    2.7500    0.0000 O   0  0  0  0  0  0  0  0  0  0  0  0
    4.2690   -2.7500    0.0000 O   0  0  0  0  0  0  0  0  0  0  0  0
    8.5991    2.7500    0.0000 O   0  0  0  0  0  0  0  0  0  0  0  0
    6.0010   -2.7500    0.0000 O   0  0  0  0  0  0  0  0  0  0  0  0
   10.3312    5.7500    0.0000 O   0  0  0  0  0  0  0  0  0  0  0  0
   12.0632    4.7500    0.0000 O   0  0  0  0  0  0  0  0  0  0  0  0
    4.2690   -5.7500    0.0000 O   0  0  0  0  0  0  0  0  0  0  0  0
    2.5369   -4.7500    0.0000 O   0  0  0  0  0  0  0  0  0  0  0  0
    8.5991    4.7500    0.0000 O   0  0  0  0  0  0  0  0  0  0  0  0
    6.0010   -4.7500    0.0000 O   0  0  0  0  0  0  0  0  0  0  0  0
   12.0632    1.7500    0.0000 O   0  0  0  0  0  0  0  0  0  0  0  0
    2.5369   -1.7500    0.0000 O   0  0  0  0  0  0  0  0  0  0  0  0
   10.3312    4.7500    0.0000 C   0  0  1  0  0  0  0  0  0  0  0  0
   11.1972    4.2500    0.0000 C   0  0  2  0  0  0  0  0  0  0  0  0
    4.2690   -4.7500    0.0000 C   0  0  2  0  0  0  0  0  0  0  0  0
    3.4030   -4.2500    0.0000 C   0  0  1  0  0  0  0  0  0  0  0  0
    9.4651    4.2500    0.0000 C   0  0  3  0  0  0  0  0  0  0  0  0
   11.1972    3.2500    0.0000 C   0  0  3  0  0  0  0  0  0  0  0  0
    5.1350   -4.2500    0.0000 C   0  0  3  0  0  0  0  0  0  0  0  0
    3.4030   -3.2500    0.0000 C   0  0  3  0  0  0  0  0  0  0  0  0
    9.4651    3.2500    0.0000 C   0  0  1  0  0  0  0  0  0  0  0  0
    5.1350   -3.2500    0.0000 C   0  0  2  0  0  0  0  0  0  0  0  0
   12.0632    2.7500    0.0000 C   0  0  0  0  0  0  0  0  0  0  0  0
    2.5369   -2.7500    0.0000 C   0  0  0  0  0  0  0  0  0  0  0  0
    8.5991    1.7500    0.0000 C   0  0  0  0  0  0  0  0  0  0  0  0
    6.0010   -1.7500    0.0000 C   0  0  0  0  0  0  0  0  0  0  0  0
    7.7331    1.2500    0.0000 C   0  0  0  0  0  0  0  0  0  0  0  0
    6.8671   -1.2500    0.0000 C   0  0  0  0  0  0  0  0  0  0  0  0
    7.7331    0.2500    0.0000 C   0  0  0  0  0  0  0  0  0  0  0  0
    6.8671   -0.2500    0.0000 C   0  0  0  0  0  0  0  0  0  0  0  0
    9.7942    5.0600    0.0000 H   0  0  0  0  0  0  0  0  0  0  0  0
   11.1972    4.8700    0.0000 H   0  0  0  0  0  0  0  0  0  0  0  0
    3.7320   -5.0600    0.0000 H   0  0  0  0  0  0  0  0  0  0  0  0
    3.4030   -4.8700    0.0000 H   0  0  0  0  0  0  0  0  0  0  0  0
    9.4651    4.8700    0.0000 H   0  0  0  0  0  0  0  0  0  0  0  0
   11.1972    2.6300    0.0000 H   0  0  0  0  0  0  0  0  0  0  0  0
    5.1350   -4.8700    0.0000 H   0  0  0  0  0  0  0  0  0  0  0  0
    3.4030   -2.6300    0.0000 H   0  0  0  0  0  0  0  0  0  0  0  0
    9.4651    2.6300    0.0000 H   0  0  0  0  0  0  0  0  0  0  0  0
    5.1350   -2.6300    0.0000 H   0  0  0  0  0  0  0  0  0  0  0  0
   12.6738    2.6423    0.0000 H   0  0  0  0  0  0  0  0  0  0  0  0
   12.2753    3.3326    0.0000 H   0  0  0  0  0  0  0  0  0  0  0  0
    1.9264   -2.6423    0.0000 H   0  0  0  0  0  0  0  0  0  0  0  0
    2.3249   -3.3326    0.0000 H   0  0  0  0  0  0  0  0  0  0  0  0
    8.8112    1.1674    0.0000 H   0  0  0  0  0  0  0  0  0  0  0  0
    9.2097    1.8577    0.0000 H   0  0  0  0  0  0  0  0  0  0  0  0
    5.7890   -1.1674    0.0000 H   0  0  0  0  0  0  0  0  0  0  0  0
    5.3905   -1.8577    0.0000 H   0  0  0  0  0  0  0  0  0  0  0  0
    7.5210    1.8326    0.0000 H   0  0  0  0  0  0  0  0  0  0  0  0
    7.1225    1.1423    0.0000 H   0  0  0  0  0  0  0  0  0  0  0  0
    7.0791   -1.8326    0.0000 H   0  0  0  0  0  0  0  0  0  0  0  0
    7.4776   -1.1423    0.0000 H   0  0  0  0  0  0  0  0  0  0  0  0
    7.9451   -0.3326    0.0000 H   0  0  0  0  0  0  0  0  0  0  0  0
    8.3437    0.3577    0.0000 H   0  0  0  0  0  0  0  0  0  0  0  0
    6.6550    0.3326    0.0000 H   0  0  0  0  0  0  0  0  0  0  0  0
    6.2565   -0.3577    0.0000 H   0  0  0  0  0  0  0  0  0  0  0  0
   10.8681    6.0600    0.0000 H   0  0  0  0  0  0  0  0  0  0  0  0
   12.6002    4.4400    0.0000 H   0  0  0  0  0  0  0  0  0  0  0  0
    3.7320   -6.0600    0.0000 H   0  0  0  0  0  0  0  0  0  0  0  0
    2.0000   -4.4400    0.0000 H   0  0  0  0  0  0  0  0  0  0  0  0
    8.0622    4.4400    0.0000 H   0  0  0  0  0  0  0  0  0  0  0  0
    6.5380   -4.4400    0.0000 H   0  0  0  0  0  0  0  0  0  0  0  0
   12.6002    1.4400    0.0000 H   0  0  0  0  0  0  0  0  0  0  0  0
    2.0000   -1.4400    0.0000 H   0  0  0  0  0  0  0  0  0  0  0  0
  1 18  1  0  0  0  0
  1 21  1  0  0  0  0
  2 20  1  0  0  0  0
  2 22  1  0  0  0  0
 21  3  1  1  0  0  0
  3 25  1  0  0  0  0
 22  4  1  6  0  0  0
  4 26  1  0  0  0  0
 13  5  1  1  0  0  0
  5 57  1  0  0  0  0
 14  6  1  1  0  0  0
  6 58  1  0  0  0  0
 15  7  1  6  0  0  0
  7 59  1  0  0  0  0
 16  8  1  6  0  0  0
  8 60  1  0  0  0  0
  9 17  1  0  0  0  0
  9 61  1  0  0  0  0
 10 19  1  0  0  0  0
 10 62  1  0  0  0  0
 11 23  1  0  0  0  0
 11 63  1  0  0  0  0
 12 24  1  0  0  0  0
 12 64  1  0  0  0  0
 13 14  1  0  0  0  0
 13 17  1  0  0  0  0
 13 31  1  0  0  0  0
 14 18  1  0  0  0  0
 14 32  1  0  0  0  0
 15 16  1  0  0  0  0
 15 19  1  0  0  0  0
 15 33  1  0  0  0  0
 16 20  1  0  0  0  0
 16 34  1  0  0  0  0
 17 21  1  0  0  0  0
 17 35  1  0  0  0  0
 18 23  1  0  0  0  0
 18 36  1  0  0  0  0
 19 22  1  0  0  0  0
 19 37  1  0  0  0  0
 20 24  1  0  0  0  0
 20 38  1  0  0  0  0
 21 39  1  0  0  0  0
 22 40  1  0  0  0  0
 23 41  1  0  0  0  0
 23 42  1  0  0  0  0
 24 43  1  0  0  0  0
 24 44  1  0  0  0  0
 25 27  1  0  0  0  0
 25 45  1  0  0  0  0
 25 46  1  0  0  0  0
 26 28  1  0  0  0  0
 26 47  1  0  0  0  0
 26 48  1  0  0  0  0
 27 29  1  0  0  0  0
 27 49  1  0  0  0  0
 27 50  1  0  0  0  0
 28 30  1  0  0  0  0
 28 51  1  0  0  0  0
 28 52  1  0  0  0  0
 29 30  1  0  0  0  0
 29 53  1  0  0  0  0
 29 54  1  0  0  0  0
 30 55  1  0  0  0  0
 30 56  1  0  0  0  0
M  END
> <PUBCHEM_COMPOUND_CID>
59760914

> <PUBCHEM_COMPOUND_CANONICALIZED>
1

> <PUBCHEM_CACTVS_COMPLEXITY>
440

> <PUBCHEM_CACTVS_HBOND_ACCEPTOR>
12

> <PUBCHEM_CACTVS_HBOND_DONOR>
8

> <PUBCHEM_CACTVS_ROTATABLE_BOND>
11

> <PUBCHEM_CACTVS_SUBSKEYS>
AAADcfB4PAAAAAAAAAAAAAAAAAAAAAAAAAAkSAAAAAAAAAAAAAAAGgAACAAACBSwgAMACAAABgAAAAAAAAAAAAAAAAAAAAAAAAAREAIAAAAiQAAFAAAHAAHAYAwAAAAAAAAAAAAAAAAAAAAAAAAAAAAAAA==

> <PUBCHEM_IUPAC_OPENEYE_NAME>
(3R,4S,6R)-2-(hydroxymethyl)-6-[6-[(2S,4R,5S)-3,4,5-trihydroxy-6-(hydroxymethyl)tetrahydropyran-2-yl]oxyhexoxy]tetrahydropyran-3,4,5-triol

> <PUBCHEM_IUPAC_CAS_NAME>
(3R,4S,6R)-2-(hydroxymethyl)-6-[6-[[(2S,4R,5S)-3,4,5-trihydroxy-6-(hydroxymethyl)-2-oxanyl]oxy]hexoxy]oxane-3,4,5-triol

> <PUBCHEM_IUPAC_NAME_MARKUP>
(3<I>R</I>,4<I>S</I>,6<I>R</I>)-2-(hydroxymethyl)-6-[6-[(2<I>S</I>,4<I>R</I>,5<I>S</I>)-3,4,5-trihydroxy-6-(hydroxymethyl)oxan-2-yl]oxyhexoxy]oxane-3,4,5-triol

> <PUBCHEM_IUPAC_NAME>
(3R,4S,6R)-2-(hydroxymethyl)-6-[6-[(2S,4R,5S)-3,4,5-trihydroxy-6-(hydroxymethyl)oxan-2-yl]oxyhexoxy]oxane-3,4,5-triol

> <PUBCHEM_IUPAC_SYSTEMATIC_NAME>
(3R,4S,6R)-2-(hydroxymethyl)-6-[6-[(2S,4R,5S)-6-(hydroxymethyl)-3,4,5-tris(oxidanyl)oxan-2-yl]oxyhexoxy]oxane-3,4,5-triol

> <PUBCHEM_IUPAC_TRADITIONAL_NAME>
(3R,4S,6R)-2-methylol-6-[6-[(2S,4R,5S)-3,4,5-trihydroxy-6-methylol-tetrahydropyran-2-yl]oxyhexoxy]tetrahydropyran-3,4,5-triol

> <PUBCHEM_IUPAC_INCHI>
InChI=1S/C18H34O12/c19-7-9-11(21)13(23)15(25)17(29-9)27-5-3-1-2-4-6-28-18-16(26)14(24)12(22)10(8-20)30-18/h9-26H,1-8H2/t9?,10?,11-,12+,13-,14+,15?,16?,17+,18-

> <PUBCHEM_IUPAC_INCHIKEY>
ZCQFQHHORAFPCP-XEFUFIOISA-N

> <PUBCHEM_XLOGP3_AA>
-2.9

> <PUBCHEM_EXACT_MASS>
442.20502652

> <PUBCHEM_MOLECULAR_FORMULA>
C18H34O12

> <PUBCHEM_MOLECULAR_WEIGHT>
442.5

> <PUBCHEM_OPENEYE_CAN_SMILES>
C(CCCOC1C(C(C(C(O1)CO)O)O)O)CCOC2C(C(C(C(O2)CO)O)O)O

> <PUBCHEM_OPENEYE_ISO_SMILES>
C(CCCO[C@H]1C([C@H]([C@H](C(O1)CO)O)O)O)CCO[C@@H]2C([C@@H]([C@@H](C(O2)CO)O)O)O

> <PUBCHEM_CACTVS_TPSA>
199

> <PUBCHEM_MONOISOTOPIC_WEIGHT>
442.20502652

> <PUBCHEM_TOTAL_CHARGE>
0

> <PUBCHEM_HEAVY_ATOM_COUNT>
30

> <PUBCHEM_ATOM_DEF_STEREO_COUNT>
6

> <PUBCHEM_ATOM_UDEF_STEREO_COUNT>
4

> <PUBCHEM_BOND_DEF_STEREO_COUNT>
0

> <PUBCHEM_BOND_UDEF_STEREO_COUNT>
0

> <PUBCHEM_ISOTOPIC_ATOM_COUNT>
0

> <PUBCHEM_COMPONENT_COUNT>
1

> <PUBCHEM_CACTVS_TAUTO_COUNT>
-1

> <PUBCHEM_COORDINATE_TYPE>
1
5
255

> <PUBCHEM_BONDANNOTATIONS>
19  10  3
18  23  3
20  24  3
21  3  5
22  4  6
13  5  5
14  6  5
15  7  6
16  8  6
17  9  3

$$$$
