 
  -OEChem-10192103292D

 75 77  0     1  0  0  0  0  0999 V2000
    8.9942   -0.8657    0.0000 O   0  0  0  0  0  0  0  0  0  0  0  0
    7.2622   -2.8657    0.0000 O   0  0  0  0  0  0  0  0  0  0  0  0
    6.3744    1.6658    0.0000 O   0  0  0  0  0  0  0  0  0  0  0  0
    3.7320   -1.8898    0.0000 O   0  0  0  0  0  0  0  0  0  0  0  0
    3.7320    0.1585    0.0000 O   0  0  0  0  0  0  0  0  0  0  0  0
    8.1403    2.7036    0.0000 O   0  0  0  0  0  0  0  0  0  0  0  0
    7.2230    3.1757    0.0000 O   0  0  0  0  0  0  0  0  0  0  0  0
    2.8602   -0.3932    0.0000 O   0  0  0  0  0  0  0  0  0  0  0  0
    4.6038    1.6551    0.0000 O   0  0  0  0  0  0  0  0  0  0  0  0
    6.3961   -0.3657    0.0000 C   0  0  2  0  0  0  0  0  0  0  0  0
    6.3961   -1.3657    0.0000 C   0  0  1  0  0  0  0  0  0  0  0  0
    7.2622    0.1343    0.0000 C   0  0  1  0  0  0  0  0  0  0  0  0
    8.1282   -0.3657    0.0000 C   0  0  2  0  0  0  0  0  0  0  0  0
    5.5022   -1.9004    0.0000 C   0  0  0  0  0  0  0  0  0  0  0  0
    7.2622   -1.8657    0.0000 C   0  0  2  0  0  0  0  0  0  0  0  0
    5.5022    0.1690    0.0000 C   0  0  0  0  0  0  0  0  0  0  0  0
    8.1282   -1.3657    0.0000 C   0  0  0  0  0  0  0  0  0  0  0  0
    7.2461    1.1758    0.0000 C   0  0  2  0  0  0  0  0  0  0  0  0
    4.5961   -1.3865    0.0000 C   0  0  2  0  0  0  0  0  0  0  0  0
    4.5961   -0.3449    0.0000 C   0  0  1  0  0  0  0  0  0  0  0  0
    9.0382    0.1412    0.0000 C   0  0  0  0  0  0  0  0  0  0  0  0
    6.3961    0.6343    0.0000 C   0  0  0  0  0  0  0  0  0  0  0  0
    8.1441    1.7036    0.0000 C   0  0  1  0  0  0  0  0  0  0  0  0
    9.0462    1.1828    0.0000 C   0  0  3  0  0  0  0  0  0  0  0  0
    5.0122   -2.7721    0.0000 C   0  0  0  0  0  0  0  0  0  0  0  0
    6.0122   -2.7605    0.0000 C   0  0  0  0  0  0  0  0  0  0  0  0
    9.9142    1.6794    0.0000 C   0  0  0  0  0  0  0  0  0  0  0  0
   10.7783    1.1761    0.0000 C   0  0  0  0  0  0  0  0  0  0  0  0
    6.3628    2.6657    0.0000 C   0  0  0  0  0  0  0  0  0  0  0  0
    2.8641   -1.3932    0.0000 C   0  0  0  0  0  0  0  0  0  0  0  0
    3.7359    1.1585    0.0000 C   0  0  0  0  0  0  0  0  0  0  0  0
    9.9180    2.6794    0.0000 C   0  0  0  0  0  0  0  0  0  0  0  0
    5.4910    3.1557    0.0000 C   0  0  0  0  0  0  0  0  0  0  0  0
    2.0000   -1.8965    0.0000 C   0  0  0  0  0  0  0  0  0  0  0  0
    2.8718    1.6618    0.0000 C   0  0  0  0  0  0  0  0  0  0  0  0
    7.1323   -0.9407    0.0000 H   0  0  0  0  0  0  0  0  0  0  0  0
    7.9950    0.5650    0.0000 H   0  0  0  0  0  0  0  0  0  0  0  0
    6.7252   -2.1757    0.0000 H   0  0  0  0  0  0  0  0  0  0  0  0
    5.9068    0.6388    0.0000 H   0  0  0  0  0  0  0  0  0  0  0  0
    5.1086    0.6480    0.0000 H   0  0  0  0  0  0  0  0  0  0  0  0
    8.3402   -1.9483    0.0000 H   0  0  0  0  0  0  0  0  0  0  0  0
    8.7388   -1.2580    0.0000 H   0  0  0  0  0  0  0  0  0  0  0  0
    7.2401    1.7958    0.0000 H   0  0  0  0  0  0  0  0  0  0  0  0
    4.5997   -2.0065    0.0000 H   0  0  0  0  0  0  0  0  0  0  0  0
    4.5997    0.2751    0.0000 H   0  0  0  0  0  0  0  0  0  0  0  0
    9.2427   -0.4441    0.0000 H   0  0  0  0  0  0  0  0  0  0  0  0
    9.6498    0.2425    0.0000 H   0  0  0  0  0  0  0  0  0  0  0  0
    7.0161    0.6343    0.0000 H   0  0  0  0  0  0  0  0  0  0  0  0
    6.3961    1.2543    0.0000 H   0  0  0  0  0  0  0  0  0  0  0  0
    5.7761    0.6343    0.0000 H   0  0  0  0  0  0  0  0  0  0  0  0
    7.6054    2.0105    0.0000 H   0  0  0  0  0  0  0  0  0  0  0  0
    9.0474    1.8028    0.0000 H   0  0  0  0  0  0  0  0  0  0  0  0
    4.4718   -2.4683    0.0000 H   0  0  0  0  0  0  0  0  0  0  0  0
    4.7085   -3.3126    0.0000 H   0  0  0  0  0  0  0  0  0  0  0  0
    5.5527   -3.0759    0.0000 H   0  0  0  0  0  0  0  0  0  0  0  0
    5.4789   -3.0767    0.0000 H   0  0  0  0  0  0  0  0  0  0  0  0
    6.3284   -3.2938    0.0000 H   0  0  0  0  0  0  0  0  0  0  0  0
    6.5455   -2.4444    0.0000 H   0  0  0  0  0  0  0  0  0  0  0  0
    9.5312   -0.5557    0.0000 H   0  0  0  0  0  0  0  0  0  0  0  0
    7.7991   -3.1757    0.0000 H   0  0  0  0  0  0  0  0  0  0  0  0
    8.6760    3.0156    0.0000 H   0  0  0  0  0  0  0  0  0  0  0  0
   10.4662    0.6403    0.0000 H   0  0  0  0  0  0  0  0  0  0  0  0
   11.3140    0.8640    0.0000 H   0  0  0  0  0  0  0  0  0  0  0  0
   11.0903    1.7118    0.0000 H   0  0  0  0  0  0  0  0  0  0  0  0
   10.4561    2.9873    0.0000 H   0  0  0  0  0  0  0  0  0  0  0  0
    9.3823    2.9915    0.0000 H   0  0  0  0  0  0  0  0  0  0  0  0
    5.7948    3.6961    0.0000 H   0  0  0  0  0  0  0  0  0  0  0  0
    4.9506    3.4594    0.0000 H   0  0  0  0  0  0  0  0  0  0  0  0
    5.1873    2.6152    0.0000 H   0  0  0  0  0  0  0  0  0  0  0  0
    1.6879   -1.3608    0.0000 H   0  0  0  0  0  0  0  0  0  0  0  0
    1.4643   -2.2086    0.0000 H   0  0  0  0  0  0  0  0  0  0  0  0
    2.3121   -2.4322    0.0000 H   0  0  0  0  0  0  0  0  0  0  0  0
    3.1839    2.1975    0.0000 H   0  0  0  0  0  0  0  0  0  0  0  0
    2.3361    1.9739    0.0000 H   0  0  0  0  0  0  0  0  0  0  0  0
    2.5597    1.1260    0.0000 H   0  0  0  0  0  0  0  0  0  0  0  0
 13  1  1  1  0  0  0
  1 59  1  0  0  0  0
 15  2  1  6  0  0  0
  2 60  1  0  0  0  0
 18  3  1  1  0  0  0
  3 29  1  0  0  0  0
 19  4  1  1  0  0  0
  4 30  1  0  0  0  0
 20  5  1  1  0  0  0
  5 31  1  0  0  0  0
 23  6  1  6  0  0  0
  6 61  1  0  0  0  0
  7 29  2  0  0  0  0
  8 30  2  0  0  0  0
  9 31  2  0  0  0  0
 10 11  1  0  0  0  0
 10 12  1  0  0  0  0
 10 16  1  0  0  0  0
 10 22  1  6  0  0  0
 11 14  1  0  0  0  0
 11 15  1  0  0  0  0
 11 36  1  1  0  0  0
 12 13  1  0  0  0  0
 12 18  1  0  0  0  0
 12 37  1  1  0  0  0
 13 17  1  0  0  0  0
 13 21  1  0  0  0  0
 14 19  1  0  0  0  0
 14 25  1  0  0  0  0
 14 26  1  0  0  0  0
 15 17  1  0  0  0  0
 15 38  1  0  0  0  0
 16 20  1  0  0  0  0
 16 39  1  0  0  0  0
 16 40  1  0  0  0  0
 17 41  1  0  0  0  0
 17 42  1  0  0  0  0
 18 23  1  0  0  0  0
 18 43  1  0  0  0  0
 19 20  1  0  0  0  0
 19 44  1  0  0  0  0
 20 45  1  0  0  0  0
 21 24  1  0  0  0  0
 21 46  1  0  0  0  0
 21 47  1  0  0  0  0
 22 48  1  0  0  0  0
 22 49  1  0  0  0  0
 22 50  1  0  0  0  0
 23 24  1  0  0  0  0
 23 51  1  0  0  0  0
 24 27  1  0  0  0  0
 24 52  1  0  0  0  0
 25 53  1  0  0  0  0
 25 54  1  0  0  0  0
 25 55  1  0  0  0  0
 26 56  1  0  0  0  0
 26 57  1  0  0  0  0
 26 58  1  0  0  0  0
 27 28  1  0  0  0  0
 27 32  2  0  0  0  0
 28 62  1  0  0  0  0
 28 63  1  0  0  0  0
 28 64  1  0  0  0  0
 29 33  1  0  0  0  0
 30 34  1  0  0  0  0
 31 35  1  0  0  0  0
 32 65  1  0  0  0  0
 32 66  1  0  0  0  0
 33 67  1  0  0  0  0
 33 68  1  0  0  0  0
 33 69  1  0  0  0  0
 34 70  1  0  0  0  0
 34 71  1  0  0  0  0
 34 72  1  0  0  0  0
 35 73  1  0  0  0  0
 35 74  1  0  0  0  0
 35 75  1  0  0  0  0
M  END
> <PUBCHEM_COMPOUND_CID>
139397882

> <PUBCHEM_COMPOUND_CANONICALIZED>
1

> <PUBCHEM_CACTVS_COMPLEXITY>
897

> <PUBCHEM_CACTVS_HBOND_ACCEPTOR>
9

> <PUBCHEM_CACTVS_HBOND_DONOR>
3

> <PUBCHEM_CACTVS_ROTATABLE_BOND>
7

> <PUBCHEM_CACTVS_SUBSKEYS>
AAADcfB4PAAAAAAAAAAAAAAAAAAAAAAAAAAwYMAAAAAAAADAAAAAGgAACAAAD1SggAICCAAABgCIAgDSCAAAAAAgAAAAAAAAAAgBEAIAAQACQAAFwAADAAHA4PwPgAAAAAAAAADCAAYQADCAAAAAAAAAAA==

> <PUBCHEM_IUPAC_OPENEYE_NAME>
[(2R,3S,4aR,4bR,5R,6R,8aS,10S,10aS)-2,5-diacetoxy-6,8a,10-trihydroxy-7-isopropenyl-1,1,4a-trimethyl-3,4,4b,5,6,7,8,9,10,10a-decahydro-2H-phenanthren-3-yl] acetate

> <PUBCHEM_IUPAC_CAS_NAME>
acetic acid [(2R,3S,4aR,4bR,5R,6R,8aS,10S,10aS)-2,5-diacetyloxy-6,8a,10-trihydroxy-1,1,4a-trimethyl-7-(1-methylethenyl)-3,4,4b,5,6,7,8,9,10,10a-decahydro-2H-phenanthren-3-yl] ester

> <PUBCHEM_IUPAC_NAME_MARKUP>
[(2<I>R</I>,3<I>S</I>,4<I>a</I><I>R</I>,4<I>b</I><I>R</I>,5<I>R</I>,6<I>R</I>,8<I>a</I><I>S</I>,10<I>S</I>,10<I>a</I><I>S</I>)-2,5-diacetyloxy-6,8<I>a</I>,10-trihydroxy-1,1,4<I>a</I>-trimethyl-7-prop-1-en-2-yl-3,4,4<I>b</I>,5,6,7,8,9,10,10<I>a</I>-decahydro-2<I>H</I>-phenanthren-3-yl] acetate

> <PUBCHEM_IUPAC_NAME>
[(2R,3S,4aR,4bR,5R,6R,8aS,10S,10aS)-2,5-diacetyloxy-6,8a,10-trihydroxy-1,1,4a-trimethyl-7-prop-1-en-2-yl-3,4,4b,5,6,7,8,9,10,10a-decahydro-2H-phenanthren-3-yl] acetate

> <PUBCHEM_IUPAC_SYSTEMATIC_NAME>
[(2R,3S,4aR,4bR,5R,6R,8aS,10S,10aS)-2,5-diacetyloxy-1,1,4a-trimethyl-6,8a,10-tris(oxidanyl)-7-prop-1-en-2-yl-3,4,4b,5,6,7,8,9,10,10a-decahydro-2H-phenanthren-3-yl] ethanoate

> <PUBCHEM_IUPAC_TRADITIONAL_NAME>
acetic acid [(2R,3S,4aR,4bR,5R,6R,8aS,10S,10aS)-2,5-diacetoxy-6,8a,10-trihydroxy-7-isopropenyl-1,1,4a-trimethyl-3,4,4b,5,6,7,8,9,10,10a-decahydro-2H-phenanthren-3-yl] ester

> <PUBCHEM_IUPAC_INCHI>
InChI=1S/C26H40O9/c1-12(2)16-9-26(32)10-17(30)21-24(6,7)23(35-15(5)29)18(33-13(3)27)11-25(21,8)22(26)20(19(16)31)34-14(4)28/h16-23,30-32H,1,9-11H2,2-8H3/t16?,17-,18-,19+,20-,21+,22-,23-,25+,26-/m0/s1

> <PUBCHEM_IUPAC_INCHIKEY>
HJJIAOKTDQDVOJ-DSIPRVSTSA-N

> <PUBCHEM_XLOGP3_AA>
2.3

> <PUBCHEM_EXACT_MASS>
496.26723285

> <PUBCHEM_MOLECULAR_FORMULA>
C26H40O9

> <PUBCHEM_MOLECULAR_WEIGHT>
496.6

> <PUBCHEM_OPENEYE_CAN_SMILES>
CC(=C)C1CC2(CC(C3C(C(C(CC3(C2C(C1O)OC(=O)C)C)OC(=O)C)OC(=O)C)(C)C)O)O

> <PUBCHEM_OPENEYE_ISO_SMILES>
CC(=C)C1C[C@@]2(C[C@@H]([C@H]3[C@]([C@@H]2[C@H]([C@@H]1O)OC(=O)C)(C[C@@H]([C@@H](C3(C)C)OC(=O)C)OC(=O)C)C)O)O

> <PUBCHEM_CACTVS_TPSA>
140

> <PUBCHEM_MONOISOTOPIC_WEIGHT>
496.26723285

> <PUBCHEM_TOTAL_CHARGE>
0

> <PUBCHEM_HEAVY_ATOM_COUNT>
35

> <PUBCHEM_ATOM_DEF_STEREO_COUNT>
9

> <PUBCHEM_ATOM_UDEF_STEREO_COUNT>
1

> <PUBCHEM_BOND_DEF_STEREO_COUNT>
0

> <PUBCHEM_BOND_UDEF_STEREO_COUNT>
0

> <PUBCHEM_ISOTOPIC_ATOM_COUNT>
0

> <PUBCHEM_COMPONENT_COUNT>
1

> <PUBCHEM_CACTVS_TAUTO_COUNT>
-1

> <PUBCHEM_COORDINATE_TYPE>
1
5
255

> <PUBCHEM_BONDANNOTATIONS>
13  1  5
10  22  6
11  36  5
12  37  5
15  2  6
24  27  3
18  3  5
19  4  5
20  5  5
23  6  6

$$$$
