 
  -OEChem-10192104052D

 48 50  0     1  0  0  0  0  0999 V2000
    8.4721    0.0330    0.0000 O   0  0  0  0  0  0  0  0  0  0  0  0
    5.8032    1.0878    0.0000 O   0  0  0  0  0  0  0  0  0  0  0  0
    6.0946   -0.2684    0.0000 O   0  0  0  0  0  0  0  0  0  0  0  0
    7.5045    2.6669    0.0000 O   0  0  0  0  0  0  0  0  0  0  0  0
    7.5045   -2.6669    0.0000 O   0  0  0  0  0  0  0  0  0  0  0  0
    2.5369    0.4799    0.0000 O   0  0  0  0  0  0  0  0  0  0  0  0
    2.5369   -0.4799    0.0000 O   0  0  0  0  0  0  0  0  0  0  0  0
    7.4743   -0.0327    0.0000 C   0  0  0  0  0  0  0  0  0  0  0  0
    6.7974    0.9799    0.0000 C   0  0  2  0  0  0  0  0  0  0  0  0
    6.7974   -0.9799    0.0000 C   0  0  2  0  0  0  0  0  0  0  0  0
    6.7974    1.9598    0.0000 C   0  0  1  0  0  0  0  0  0  0  0  0
    6.7974   -1.9598    0.0000 C   0  0  2  0  0  0  0  0  0  0  0  0
    5.9488    2.4497    0.0000 C   0  0  0  0  0  0  0  0  0  0  0  0
    5.9488   -2.4497    0.0000 C   0  0  0  0  0  0  0  0  0  0  0  0
    5.1002    1.9598    0.0000 C   0  0  0  0  0  0  0  0  0  0  0  0
    5.1002   -1.9598    0.0000 C   0  0  0  0  0  0  0  0  0  0  0  0
    4.2516    0.4899    0.0000 C   0  0  0  0  0  0  0  0  0  0  0  0
    4.2516   -0.4899    0.0000 C   0  0  0  0  0  0  0  0  0  0  0  0
    5.1002    0.9799    0.0000 C   0  0  0  0  0  0  0  0  0  0  0  0
    5.1002   -0.9799    0.0000 C   0  0  0  0  0  0  0  0  0  0  0  0
    4.2516    2.4497    0.0000 C   0  0  0  0  0  0  0  0  0  0  0  0
    4.2516   -2.4497    0.0000 C   0  0  0  0  0  0  0  0  0  0  0  0
    3.4030    0.9799    0.0000 C   0  0  0  0  0  0  0  0  0  0  0  0
    3.4030   -0.9799    0.0000 C   0  0  0  0  0  0  0  0  0  0  0  0
    3.4030    1.9598    0.0000 C   0  0  0  0  0  0  0  0  0  0  0  0
    3.4030   -1.9598    0.0000 C   0  0  0  0  0  0  0  0  0  0  0  0
    7.7759   -0.5744    0.0000 H   0  0  0  0  0  0  0  0  0  0  0  0
    6.3500    0.5507    0.0000 H   0  0  0  0  0  0  0  0  0  0  0  0
    6.1975   -1.1366    0.0000 H   0  0  0  0  0  0  0  0  0  0  0  0
    7.3963    1.7993    0.0000 H   0  0  0  0  0  0  0  0  0  0  0  0
    7.3963   -1.7993    0.0000 H   0  0  0  0  0  0  0  0  0  0  0  0
    6.3473    2.9247    0.0000 H   0  0  0  0  0  0  0  0  0  0  0  0
    5.5502    2.9247    0.0000 H   0  0  0  0  0  0  0  0  0  0  0  0
    5.5502   -2.9247    0.0000 H   0  0  0  0  0  0  0  0  0  0  0  0
    6.3473   -2.9247    0.0000 H   0  0  0  0  0  0  0  0  0  0  0  0
    8.8167   -0.4824    0.0000 H   0  0  0  0  0  0  0  0  0  0  0  0
    5.8702    1.7042    0.0000 H   0  0  0  0  0  0  0  0  0  0  0  0
    5.4948   -0.4252    0.0000 H   0  0  0  0  0  0  0  0  0  0  0  0
    5.6371    0.6699    0.0000 H   0  0  0  0  0  0  0  0  0  0  0  0
    5.6371   -0.6699    0.0000 H   0  0  0  0  0  0  0  0  0  0  0  0
    7.3440    3.2658    0.0000 H   0  0  0  0  0  0  0  0  0  0  0  0
    7.3440   -3.2658    0.0000 H   0  0  0  0  0  0  0  0  0  0  0  0
    4.2516    3.0697    0.0000 H   0  0  0  0  0  0  0  0  0  0  0  0
    4.2516   -3.0697    0.0000 H   0  0  0  0  0  0  0  0  0  0  0  0
    2.8660    2.2698    0.0000 H   0  0  0  0  0  0  0  0  0  0  0  0
    2.8660   -2.2698    0.0000 H   0  0  0  0  0  0  0  0  0  0  0  0
    2.0000    0.7899    0.0000 H   0  0  0  0  0  0  0  0  0  0  0  0
    2.0000   -0.7899    0.0000 H   0  0  0  0  0  0  0  0  0  0  0  0
  1  8  1  0  0  0  0
  1 36  1  0  0  0  0
  9  2  1  1  0  0  0
  2 37  1  0  0  0  0
 10  3  1  6  0  0  0
  3 38  1  0  0  0  0
 11  4  1  1  0  0  0
  4 41  1  0  0  0  0
 12  5  1  1  0  0  0
  5 42  1  0  0  0  0
  6 23  1  0  0  0  0
  6 47  1  0  0  0  0
  7 24  1  0  0  0  0
  7 48  1  0  0  0  0
  8  9  1  0  0  0  0
  8 10  1  0  0  0  0
  8 27  1  0  0  0  0
  9 11  1  0  0  0  0
  9 28  1  0  0  0  0
 10 12  1  0  0  0  0
 10 29  1  0  0  0  0
 11 13  1  0  0  0  0
 11 30  1  0  0  0  0
 12 14  1  0  0  0  0
 12 31  1  0  0  0  0
 13 15  1  0  0  0  0
 13 32  1  0  0  0  0
 13 33  1  0  0  0  0
 14 16  1  0  0  0  0
 14 34  1  0  0  0  0
 14 35  1  0  0  0  0
 15 19  2  0  0  0  0
 15 21  1  0  0  0  0
 16 20  2  0  0  0  0
 16 22  1  0  0  0  0
 17 18  1  0  0  0  0
 17 19  1  0  0  0  0
 17 23  2  0  0  0  0
 18 20  1  0  0  0  0
 18 24  2  0  0  0  0
 19 39  1  0  0  0  0
 20 40  1  0  0  0  0
 21 25  2  0  0  0  0
 21 43  1  0  0  0  0
 22 26  2  0  0  0  0
 22 44  1  0  0  0  0
 23 25  1  0  0  0  0
 24 26  1  0  0  0  0
 25 45  1  0  0  0  0
 26 46  1  0  0  0  0
M  END
> <PUBCHEM_COMPOUND_CID>
127027031

> <PUBCHEM_COMPOUND_CANONICALIZED>
1

> <PUBCHEM_CACTVS_COMPLEXITY>
421

> <PUBCHEM_CACTVS_HBOND_ACCEPTOR>
7

> <PUBCHEM_CACTVS_HBOND_DONOR>
7

> <PUBCHEM_CACTVS_ROTATABLE_BOND>
0

> <PUBCHEM_CACTVS_SUBSKEYS>
AAADceB4OAAAAAAAAAAAAAAAAAAAAAAAAAAwYAAAAAAAAAABQAAAGgAACAAADBSgmAIwBoAAAgCAAiBCAAACAAAgIAAIiAAGCIgJNiKCERKAcAAlwBEJmAfA4PQOoAACAAAIAABAAAQAABAAAAAAAAAAAA==

> <PUBCHEM_IUPAC_OPENEYE_NAME>
(8R,9S,11S,12S)-tricyclo[12.3.1.12,6]nonadeca-1(17),2,4,6(19),14(18),15-hexaene-3,8,9,10,11,12,17-heptol

> <PUBCHEM_IUPAC_CAS_NAME>
(8R,9S,11S,12S)-tricyclo[12.3.1.12,6]nonadeca-1(17),2,4,6(19),14(18),15-hexaene-3,8,9,10,11,12,17-heptol

> <PUBCHEM_IUPAC_NAME_MARKUP>
(8<I>R</I>,9<I>S</I>,11<I>S</I>,12<I>S</I>)-tricyclo[12.3.1.1<SUP>2,6</SUP>]nonadeca-1(17),2,4,6(19),14(18),15-hexaene-3,8,9,10,11,12,17-heptol

> <PUBCHEM_IUPAC_NAME>
(8R,9S,11S,12S)-tricyclo[12.3.1.12,6]nonadeca-1(17),2,4,6(19),14(18),15-hexaene-3,8,9,10,11,12,17-heptol

> <PUBCHEM_IUPAC_SYSTEMATIC_NAME>
(8R,9S,11S,12S)-tricyclo[12.3.1.12,6]nonadeca-1(17),2,4,6(19),14(18),15-hexaene-3,8,9,10,11,12,17-heptol

> <PUBCHEM_IUPAC_TRADITIONAL_NAME>
(8R,9S,11S,12S)-tricyclo[12.3.1.12,6]nonadeca-1(17),2,4,6(19),14(18),15-hexaene-3,8,9,10,11,12,17-heptol

> <PUBCHEM_IUPAC_INCHI>
InChI=1S/C19H22O7/c20-13-3-1-9-5-11(13)12-6-10(2-4-14(12)21)8-16(23)18(25)19(26)17(24)15(22)7-9/h1-6,15-26H,7-8H2/t15-,16+,17-,18-,19?/m0/s1

> <PUBCHEM_IUPAC_INCHIKEY>
ITCMVFGYPKRCJI-YMNIQUSHSA-N

> <PUBCHEM_XLOGP3_AA>
0

> <PUBCHEM_EXACT_MASS>
362.13655304

> <PUBCHEM_MOLECULAR_FORMULA>
C19H22O7

> <PUBCHEM_MOLECULAR_WEIGHT>
362.4

> <PUBCHEM_OPENEYE_CAN_SMILES>
C1C(C(C(C(C(CC2=CC(=C(C=C2)O)C3=C(C=CC1=C3)O)O)O)O)O)O

> <PUBCHEM_OPENEYE_ISO_SMILES>
C1[C@H]([C@@H](C([C@H]([C@H](CC2=CC(=C(C=C2)O)C3=C(C=CC1=C3)O)O)O)O)O)O

> <PUBCHEM_CACTVS_TPSA>
142

> <PUBCHEM_MONOISOTOPIC_WEIGHT>
362.13655304

> <PUBCHEM_TOTAL_CHARGE>
0

> <PUBCHEM_HEAVY_ATOM_COUNT>
26

> <PUBCHEM_ATOM_DEF_STEREO_COUNT>
4

> <PUBCHEM_ATOM_UDEF_STEREO_COUNT>
0

> <PUBCHEM_BOND_DEF_STEREO_COUNT>
0

> <PUBCHEM_BOND_UDEF_STEREO_COUNT>
0

> <PUBCHEM_ISOTOPIC_ATOM_COUNT>
0

> <PUBCHEM_COMPONENT_COUNT>
1

> <PUBCHEM_CACTVS_TAUTO_COUNT>
-1

> <PUBCHEM_COORDINATE_TYPE>
1
5
255

> <PUBCHEM_BONDANNOTATIONS>
15  19  8
15  21  8
16  20  8
16  22  8
17  19  8
17  23  8
18  20  8
18  24  8
9  2  5
21  25  8
22  26  8
23  25  8
24  26  8
10  3  6
11  4  5
12  5  5

$$$$
