 
  -OEChem-10192104342D

 69 72  0     0  0  0  0  0  0999 V2000
   13.0309   -3.1581    0.0000 S   0  0  0  0  0  0  0  0  0  0  0  0
   14.5309    2.9041    0.0000 O   0  0  0  0  0  0  0  0  0  0  0  0
   13.8969    3.5381    0.0000 O   0  0  0  0  0  0  0  0  0  0  0  0
   13.8969    0.5381    0.0000 O   0  0  0  0  0  0  0  0  0  0  0  0
   12.0309    0.3060    0.0000 O   0  0  0  0  0  0  0  0  0  0  0  0
    8.5309   -2.2920    0.0000 O   0  0  0  0  0  0  0  0  0  0  0  0
    9.0309   -3.1581    0.0000 O   0  0  0  0  0  0  0  0  0  0  0  0
   13.0309   -4.1581    0.0000 O   0  0  0  0  0  0  0  0  0  0  0  0
   13.0309   -2.1581    0.0000 O   0  0  0  0  0  0  0  0  0  0  0  0
   12.0309    2.0381    0.0000 N   0  0  0  0  0  0  0  0  0  0  0  0
    6.9473    0.2447    0.0000 N   0  0  0  0  0  0  0  0  0  0  0  0
    6.9473   -1.3647    0.0000 N   0  0  0  0  0  0  0  0  0  0  0  0
   14.0309   -3.1581    0.0000 N   0  0  0  0  0  0  0  0  0  0  0  0
    2.5369   -0.0600    0.0000 N   0  0  0  0  0  0  0  0  0  0  0  0
    3.4030    1.4400    0.0000 N   0  0  0  0  0  0  0  0  0  0  0  0
   13.0309    2.0381    0.0000 C   0  0  0  0  0  0  0  0  0  0  0  0
   14.0309    2.0381    0.0000 C   0  0  0  0  0  0  0  0  0  0  0  0
   13.0309    3.0381    0.0000 C   0  0  0  0  0  0  0  0  0  0  0  0
   13.0309    1.0381    0.0000 C   0  0  0  0  0  0  0  0  0  0  0  0
   10.5309    1.1720    0.0000 C   0  0  0  0  0  0  0  0  0  0  0  0
   10.0309    0.3060    0.0000 C   0  0  0  0  0  0  0  0  0  0  0  0
   11.5309    1.1720    0.0000 C   0  0  0  0  0  0  0  0  0  0  0  0
    8.5309   -0.5600    0.0000 C   0  0  0  0  0  0  0  0  0  0  0  0
   10.0309   -1.4260    0.0000 C   0  0  0  0  0  0  0  0  0  0  0  0
    9.0309    0.3060    0.0000 C   0  0  0  0  0  0  0  0  0  0  0  0
   10.5309   -0.5600    0.0000 C   0  0  0  0  0  0  0  0  0  0  0  0
    9.0309   -1.4260    0.0000 C   0  0  0  0  0  0  0  0  0  0  0  0
    7.5309   -0.5600    0.0000 C   0  0  0  0  0  0  0  0  0  0  0  0
   10.5309   -2.2920    0.0000 C   0  0  0  0  0  0  0  0  0  0  0  0
    6.0010   -0.0600    0.0000 C   0  0  0  0  0  0  0  0  0  0  0  0
    6.0010   -1.0600    0.0000 C   0  0  0  0  0  0  0  0  0  0  0  0
   11.5309   -2.2920    0.0000 C   0  0  0  0  0  0  0  0  0  0  0  0
   10.0309   -3.1581    0.0000 C   0  0  0  0  0  0  0  0  0  0  0  0
   12.0309   -3.1581    0.0000 C   0  0  0  0  0  0  0  0  0  0  0  0
    5.1350    0.4400    0.0000 C   0  0  0  0  0  0  0  0  0  0  0  0
    5.1350   -1.5600    0.0000 C   0  0  0  0  0  0  0  0  0  0  0  0
   10.5309   -4.0241    0.0000 C   0  0  0  0  0  0  0  0  0  0  0  0
   11.5309   -4.0241    0.0000 C   0  0  0  0  0  0  0  0  0  0  0  0
    4.2690   -0.0600    0.0000 C   0  0  0  0  0  0  0  0  0  0  0  0
    4.2690   -1.0600    0.0000 C   0  0  0  0  0  0  0  0  0  0  0  0
    3.4030    0.4400    0.0000 C   0  0  0  0  0  0  0  0  0  0  0  0
   11.7209    2.5750    0.0000 H   0  0  0  0  0  0  0  0  0  0  0  0
   13.9232    1.4275    0.0000 H   0  0  0  0  0  0  0  0  0  0  0  0
   14.6135    1.8260    0.0000 H   0  0  0  0  0  0  0  0  0  0  0  0
   12.8188    3.6207    0.0000 H   0  0  0  0  0  0  0  0  0  0  0  0
   12.4203    2.9304    0.0000 H   0  0  0  0  0  0  0  0  0  0  0  0
   12.4203    1.1457    0.0000 H   0  0  0  0  0  0  0  0  0  0  0  0
   12.8188    0.4555    0.0000 H   0  0  0  0  0  0  0  0  0  0  0  0
   10.6385    1.7826    0.0000 H   0  0  0  0  0  0  0  0  0  0  0  0
    9.9483    1.3841    0.0000 H   0  0  0  0  0  0  0  0  0  0  0  0
    8.7209    0.8430    0.0000 H   0  0  0  0  0  0  0  0  0  0  0  0
   11.1509   -0.5600    0.0000 H   0  0  0  0  0  0  0  0  0  0  0  0
    7.1399    0.8341    0.0000 H   0  0  0  0  0  0  0  0  0  0  0  0
   15.1509    2.9041    0.0000 H   0  0  0  0  0  0  0  0  0  0  0  0
   13.8969    4.1581    0.0000 H   0  0  0  0  0  0  0  0  0  0  0  0
   14.4338    0.8481    0.0000 H   0  0  0  0  0  0  0  0  0  0  0  0
   11.8409   -1.7551    0.0000 H   0  0  0  0  0  0  0  0  0  0  0  0
    5.1350    1.0600    0.0000 H   0  0  0  0  0  0  0  0  0  0  0  0
    5.1350   -2.1800    0.0000 H   0  0  0  0  0  0  0  0  0  0  0  0
   10.2209   -4.5610    0.0000 H   0  0  0  0  0  0  0  0  0  0  0  0
   11.8409   -4.5610    0.0000 H   0  0  0  0  0  0  0  0  0  0  0  0
    7.9109   -2.2920    0.0000 H   0  0  0  0  0  0  0  0  0  0  0  0
    3.7320   -1.3700    0.0000 H   0  0  0  0  0  0  0  0  0  0  0  0
    8.7209   -3.6950    0.0000 H   0  0  0  0  0  0  0  0  0  0  0  0
   14.3409   -3.6950    0.0000 H   0  0  0  0  0  0  0  0  0  0  0  0
   14.3409   -2.6211    0.0000 H   0  0  0  0  0  0  0  0  0  0  0  0
    2.0000    0.2500    0.0000 H   0  0  0  0  0  0  0  0  0  0  0  0
    2.5369   -0.6800    0.0000 H   0  0  0  0  0  0  0  0  0  0  0  0
    2.8660    1.7500    0.0000 H   0  0  0  0  0  0  0  0  0  0  0  0
  1  8  2  0  0  0  0
  1  9  2  0  0  0  0
  1 13  1  0  0  0  0
  1 34  1  0  0  0  0
  2 17  1  0  0  0  0
  2 54  1  0  0  0  0
  3 18  1  0  0  0  0
  3 55  1  0  0  0  0
  4 19  1  0  0  0  0
  4 56  1  0  0  0  0
  5 22  2  0  0  0  0
  6 27  1  0  0  0  0
  6 62  1  0  0  0  0
  7 33  1  0  0  0  0
  7 64  1  0  0  0  0
 10 16  1  0  0  0  0
 10 22  1  0  0  0  0
 10 42  1  0  0  0  0
 11 28  1  0  0  0  0
 11 30  1  0  0  0  0
 11 53  1  0  0  0  0
 12 28  2  0  0  0  0
 12 31  1  0  0  0  0
 13 65  1  0  0  0  0
 13 66  1  0  0  0  0
 14 41  1  0  0  0  0
 14 67  1  0  0  0  0
 14 68  1  0  0  0  0
 15 41  2  0  0  0  0
 15 69  1  0  0  0  0
 16 17  1  0  0  0  0
 16 18  1  0  0  0  0
 16 19  1  0  0  0  0
 17 43  1  0  0  0  0
 17 44  1  0  0  0  0
 18 45  1  0  0  0  0
 18 46  1  0  0  0  0
 19 47  1  0  0  0  0
 19 48  1  0  0  0  0
 20 21  1  0  0  0  0
 20 22  1  0  0  0  0
 20 49  1  0  0  0  0
 20 50  1  0  0  0  0
 21 25  1  0  0  0  0
 21 26  2  0  0  0  0
 23 25  2  0  0  0  0
 23 27  1  0  0  0  0
 23 28  1  0  0  0  0
 24 26  1  0  0  0  0
 24 27  2  0  0  0  0
 24 29  1  0  0  0  0
 25 51  1  0  0  0  0
 26 52  1  0  0  0  0
 29 32  1  0  0  0  0
 29 33  2  0  0  0  0
 30 31  2  0  0  0  0
 30 35  1  0  0  0  0
 31 36  1  0  0  0  0
 32 34  2  0  0  0  0
 32 57  1  0  0  0  0
 33 37  1  0  0  0  0
 34 38  1  0  0  0  0
 35 39  2  0  0  0  0
 35 58  1  0  0  0  0
 36 40  2  0  0  0  0
 36 59  1  0  0  0  0
 37 38  2  0  0  0  0
 37 60  1  0  0  0  0
 38 61  1  0  0  0  0
 39 40  1  0  0  0  0
 39 41  1  0  0  0  0
 40 63  1  0  0  0  0
M  END
> <PUBCHEM_COMPOUND_CID>
136339417

> <PUBCHEM_COMPOUND_CANONICALIZED>
1

> <PUBCHEM_CACTVS_COMPLEXITY>
1030

> <PUBCHEM_CACTVS_HBOND_ACCEPTOR>
11

> <PUBCHEM_CACTVS_HBOND_DONOR>
10

> <PUBCHEM_CACTVS_ROTATABLE_BOND>
10

> <PUBCHEM_CACTVS_SUBSKEYS>
AAADceB7vABAAAAAAAAAAAAAAAAAAWAAAAAwYMAAAAAAAFgB9AAAHgQQSAAADIyh3wIx17bJkgKoAydydHDCgD2hMqAJmTk2fJiKfrLCnZOUcAhv1BPY2CfYyPCOqIACwAAIACBRAAWAABAAQAAAAAAAAA==

> <PUBCHEM_IUPAC_OPENEYE_NAME>
2-[3-(6-carbamimidoyl-1H-benzimidazol-2-yl)-4-hydroxy-5-(2-hydroxy-5-sulfamoyl-phenyl)phenyl]-N-[2-hydroxy-1,1-bis(hydroxymethyl)ethyl]acetamide

> <PUBCHEM_IUPAC_CAS_NAME>
2-[3-(6-carbamimidoyl-1H-benzimidazol-2-yl)-4-hydroxy-5-(2-hydroxy-5-sulfamoylphenyl)phenyl]-N-[1,3-dihydroxy-2-(hydroxymethyl)propan-2-yl]acetamide

> <PUBCHEM_IUPAC_NAME_MARKUP>
2-[3-(6-carbamimidoyl-1<I>H</I>-benzimidazol-2-yl)-4-hydroxy-5-(2-hydroxy-5-sulfamoylphenyl)phenyl]-<I>N</I>-[1,3-dihydroxy-2-(hydroxymethyl)propan-2-yl]acetamide

> <PUBCHEM_IUPAC_NAME>
2-[3-(6-carbamimidoyl-1H-benzimidazol-2-yl)-4-hydroxy-5-(2-hydroxy-5-sulfamoylphenyl)phenyl]-N-[1,3-dihydroxy-2-(hydroxymethyl)propan-2-yl]acetamide

> <PUBCHEM_IUPAC_SYSTEMATIC_NAME>
2-[3-(6-carbamimidoyl-1H-benzimidazol-2-yl)-4-oxidanyl-5-(2-oxidanyl-5-sulfamoyl-phenyl)phenyl]-N-[2-(hydroxymethyl)-1,3-bis(oxidanyl)propan-2-yl]ethanamide

> <PUBCHEM_IUPAC_TRADITIONAL_NAME>
2-[3-(6-amidino-1H-benzimidazol-2-yl)-4-hydroxy-5-(2-hydroxy-5-sulfamoyl-phenyl)phenyl]-N-(2-hydroxy-1,1-dimethylol-ethyl)acetamide

> <PUBCHEM_IUPAC_INCHI>
InChI=1S/C26H28N6O8S/c27-24(28)14-1-3-19-20(8-14)31-25(30-19)18-6-13(7-22(37)32-26(10-33,11-34)12-35)5-17(23(18)38)16-9-15(41(29,39)40)2-4-21(16)36/h1-6,8-9,33-36,38H,7,10-12H2,(H3,27,28)(H,30,31)(H,32,37)(H2,29,39,40)

> <PUBCHEM_IUPAC_INCHIKEY>
GNEKKDHUCZWTIW-UHFFFAOYSA-N

> <PUBCHEM_XLOGP3_AA>
-1.4

> <PUBCHEM_EXACT_MASS>
584.16893305

> <PUBCHEM_MOLECULAR_FORMULA>
C26H28N6O8S

> <PUBCHEM_MOLECULAR_WEIGHT>
584.6

> <PUBCHEM_OPENEYE_CAN_SMILES>
C1=CC2=C(C=C1C(=N)N)NC(=N2)C3=CC(=CC(=C3O)C4=C(C=CC(=C4)S(=O)(=O)N)O)CC(=O)NC(CO)(CO)CO

> <PUBCHEM_OPENEYE_ISO_SMILES>
C1=CC2=C(C=C1C(=N)N)NC(=N2)C3=CC(=CC(=C3O)C4=C(C=CC(=C4)S(=O)(=O)N)O)CC(=O)NC(CO)(CO)CO

> <PUBCHEM_CACTVS_TPSA>
277

> <PUBCHEM_MONOISOTOPIC_WEIGHT>
584.16893305

> <PUBCHEM_TOTAL_CHARGE>
0

> <PUBCHEM_HEAVY_ATOM_COUNT>
41

> <PUBCHEM_ATOM_DEF_STEREO_COUNT>
0

> <PUBCHEM_ATOM_UDEF_STEREO_COUNT>
0

> <PUBCHEM_BOND_DEF_STEREO_COUNT>
0

> <PUBCHEM_BOND_UDEF_STEREO_COUNT>
0

> <PUBCHEM_ISOTOPIC_ATOM_COUNT>
0

> <PUBCHEM_COMPONENT_COUNT>
1

> <PUBCHEM_CACTVS_TAUTO_COUNT>
-1

> <PUBCHEM_COORDINATE_TYPE>
1
5
255

> <PUBCHEM_BONDANNOTATIONS>
11  28  8
11  30  8
12  28  8
12  31  8
21  25  8
21  26  8
23  25  8
23  27  8
24  26  8
24  27  8
29  32  8
29  33  8
30  31  8
30  35  8
31  36  8
32  34  8
33  37  8
34  38  8
35  39  8
36  40  8
37  38  8
39  40  8

$$$$
