 
  -OEChem-10192104072D

 66 69  0     1  0  0  0  0  0999 V2000
    6.3301    2.5000    0.0000 O   0  0  0  0  0  0  0  0  0  0  0  0
    2.8660    0.5000    0.0000 O   0  0  0  0  0  0  0  0  0  0  0  0
    5.4641    1.0000    0.0000 O   0  0  0  0  0  0  0  0  0  0  0  0
    2.0000   -1.0000    0.0000 O   0  0  0  0  0  0  0  0  0  0  0  0
    8.9282    2.0000    0.0000 O   0  0  0  0  0  0  0  0  0  0  0  0
    2.8660    2.5000    0.0000 O   0  0  0  0  0  0  0  0  0  0  0  0
    4.5981    3.5000    0.0000 O   0  0  0  0  0  0  0  0  0  0  0  0
    6.3301    0.5000    0.0000 O   0  0  0  0  0  0  0  0  0  0  0  0
    4.5981   -0.5000    0.0000 O   0  0  0  0  0  0  0  0  0  0  0  0
    8.0622   -0.5000    0.0000 O   0  0  0  0  0  0  0  0  0  0  0  0
    9.7942    0.5000    0.0000 O   0  0  0  0  0  0  0  0  0  0  0  0
    4.5981   -2.5000    0.0000 O   0  0  0  0  0  0  0  0  0  0  0  0
    2.8660   -3.5000    0.0000 O   0  0  0  0  0  0  0  0  0  0  0  0
   14.1244    2.0000    0.0000 O   0  5  0  0  0  0  0  0  0  0  0  0
   13.2583    3.5000    0.0000 O   0  0  0  0  0  0  0  0  0  0  0  0
   13.2583    2.5000    0.0000 N   0  3  0  0  0  0  0  0  0  0  0  0
    3.7320    1.0000    0.0000 C   0  0  1  0  0  0  0  0  0  0  0  0
    3.7320    2.0000    0.0000 C   0  0  1  0  0  0  0  0  0  0  0  0
    4.5981    2.5000    0.0000 C   0  0  2  0  0  0  0  0  0  0  0  0
    5.4641    2.0000    0.0000 C   0  0  2  0  0  0  0  0  0  0  0  0
    7.1962    2.0000    0.0000 C   0  0  1  0  0  0  0  0  0  0  0  0
    4.5981    0.5000    0.0000 C   0  0  0  0  0  0  0  0  0  0  0  0
    7.1962    1.0000    0.0000 C   0  0  1  0  0  0  0  0  0  0  0  0
    2.8660   -0.5000    0.0000 C   0  0  2  0  0  0  0  0  0  0  0  0
    3.7320   -1.0000    0.0000 C   0  0  1  0  0  0  0  0  0  0  0  0
    8.0622    0.5000    0.0000 C   0  0  2  0  0  0  0  0  0  0  0  0
    3.7320   -2.0000    0.0000 C   0  0  2  0  0  0  0  0  0  0  0  0
    8.0622    2.5000    0.0000 C   0  0  0  0  0  0  0  0  0  0  0  0
    8.9282    1.0000    0.0000 C   0  0  1  0  0  0  0  0  0  0  0  0
    2.8660   -2.5000    0.0000 C   0  0  1  0  0  0  0  0  0  0  0  0
    2.0000   -2.0000    0.0000 C   0  0  0  0  0  0  0  0  0  0  0  0
   10.6603    1.0000    0.0000 C   0  0  0  0  0  0  0  0  0  0  0  0
   11.5263    0.5000    0.0000 C   0  0  0  0  0  0  0  0  0  0  0  0
   10.6603    2.0000    0.0000 C   0  0  0  0  0  0  0  0  0  0  0  0
   12.3923    1.0000    0.0000 C   0  0  0  0  0  0  0  0  0  0  0  0
   11.5263    2.5000    0.0000 C   0  0  0  0  0  0  0  0  0  0  0  0
   12.3923    2.0000    0.0000 C   0  0  0  0  0  0  0  0  0  0  0  0
    3.7320    0.3800    0.0000 H   0  0  0  0  0  0  0  0  0  0  0  0
    3.7320    2.6200    0.0000 H   0  0  0  0  0  0  0  0  0  0  0  0
    4.0611    2.8100    0.0000 H   0  0  0  0  0  0  0  0  0  0  0  0
    5.4641    2.6200    0.0000 H   0  0  0  0  0  0  0  0  0  0  0  0
    7.1962    2.6200    0.0000 H   0  0  0  0  0  0  0  0  0  0  0  0
    4.1996    0.0251    0.0000 H   0  0  0  0  0  0  0  0  0  0  0  0
    4.9966    0.0251    0.0000 H   0  0  0  0  0  0  0  0  0  0  0  0
    6.6592    1.3100    0.0000 H   0  0  0  0  0  0  0  0  0  0  0  0
    3.4030   -0.1900    0.0000 H   0  0  0  0  0  0  0  0  0  0  0  0
    4.2690   -1.3100    0.0000 H   0  0  0  0  0  0  0  0  0  0  0  0
    7.5252    0.1900    0.0000 H   0  0  0  0  0  0  0  0  0  0  0  0
    3.7320   -2.6200    0.0000 H   0  0  0  0  0  0  0  0  0  0  0  0
    8.4607    2.9750    0.0000 H   0  0  0  0  0  0  0  0  0  0  0  0
    7.6636    2.9750    0.0000 H   0  0  0  0  0  0  0  0  0  0  0  0
    8.9282    0.3800    0.0000 H   0  0  0  0  0  0  0  0  0  0  0  0
    2.3291   -2.8100    0.0000 H   0  0  0  0  0  0  0  0  0  0  0  0
    1.3894   -1.8923    0.0000 H   0  0  0  0  0  0  0  0  0  0  0  0
    1.7880   -2.5826    0.0000 H   0  0  0  0  0  0  0  0  0  0  0  0
    2.3291    2.1900    0.0000 H   0  0  0  0  0  0  0  0  0  0  0  0
    4.0611    3.8100    0.0000 H   0  0  0  0  0  0  0  0  0  0  0  0
    6.3301   -0.1200    0.0000 H   0  0  0  0  0  0  0  0  0  0  0  0
    5.1350   -0.8100    0.0000 H   0  0  0  0  0  0  0  0  0  0  0  0
    8.5991   -0.8100    0.0000 H   0  0  0  0  0  0  0  0  0  0  0  0
    4.5981   -3.1200    0.0000 H   0  0  0  0  0  0  0  0  0  0  0  0
    2.3291   -3.8100    0.0000 H   0  0  0  0  0  0  0  0  0  0  0  0
   11.5263   -0.1200    0.0000 H   0  0  0  0  0  0  0  0  0  0  0  0
   10.1233    2.3100    0.0000 H   0  0  0  0  0  0  0  0  0  0  0  0
   12.9292    0.6900    0.0000 H   0  0  0  0  0  0  0  0  0  0  0  0
   11.5263    3.1200    0.0000 H   0  0  0  0  0  0  0  0  0  0  0  0
 20  1  1  6  0  0  0
 21  1  1  6  0  0  0
 17  2  1  1  0  0  0
 24  2  1  1  0  0  0
  3 20  1  0  0  0  0
  3 22  1  0  0  0  0
  4 24  1  0  0  0  0
  4 31  1  0  0  0  0
  5 28  1  0  0  0  0
  5 29  1  0  0  0  0
 18  6  1  6  0  0  0
  6 56  1  0  0  0  0
 19  7  1  1  0  0  0
  7 57  1  0  0  0  0
 23  8  1  1  0  0  0
  8 58  1  0  0  0  0
 25  9  1  6  0  0  0
  9 59  1  0  0  0  0
 26 10  1  6  0  0  0
 10 60  1  0  0  0  0
 29 11  1  1  0  0  0
 11 32  1  0  0  0  0
 27 12  1  1  0  0  0
 12 61  1  0  0  0  0
 30 13  1  6  0  0  0
 13 62  1  0  0  0  0
 14 16  1  0  0  0  0
 15 16  2  0  0  0  0
 16 37  1  0  0  0  0
 17 18  1  0  0  0  0
 17 22  1  0  0  0  0
 17 38  1  0  0  0  0
 18 19  1  0  0  0  0
 18 39  1  0  0  0  0
 19 20  1  0  0  0  0
 19 40  1  0  0  0  0
 20 41  1  0  0  0  0
 21 23  1  0  0  0  0
 21 28  1  0  0  0  0
 21 42  1  0  0  0  0
 22 43  1  0  0  0  0
 22 44  1  0  0  0  0
 23 26  1  0  0  0  0
 23 45  1  0  0  0  0
 24 25  1  0  0  0  0
 24 46  1  0  0  0  0
 25 27  1  0  0  0  0
 25 47  1  0  0  0  0
 26 29  1  0  0  0  0
 26 48  1  0  0  0  0
 27 30  1  0  0  0  0
 27 49  1  0  0  0  0
 28 50  1  0  0  0  0
 28 51  1  0  0  0  0
 29 52  1  0  0  0  0
 30 31  1  0  0  0  0
 30 53  1  0  0  0  0
 31 54  1  0  0  0  0
 31 55  1  0  0  0  0
 32 33  2  0  0  0  0
 32 34  1  0  0  0  0
 33 35  1  0  0  0  0
 33 63  1  0  0  0  0
 34 36  2  0  0  0  0
 34 64  1  0  0  0  0
 35 37  2  0  0  0  0
 35 65  1  0  0  0  0
 36 37  1  0  0  0  0
 36 66  1  0  0  0  0
M  CHG  2  14  -1  16   1
M  END
> <PUBCHEM_COMPOUND_CID>
11387067

> <PUBCHEM_COMPOUND_CANONICALIZED>
1

> <PUBCHEM_CACTVS_COMPLEXITY>
748

> <PUBCHEM_CACTVS_HBOND_ACCEPTOR>
15

> <PUBCHEM_CACTVS_HBOND_DONOR>
7

> <PUBCHEM_CACTVS_ROTATABLE_BOND>
6

> <PUBCHEM_CACTVS_SUBSKEYS>
AAADceB6PAAAAAAAAAAAAAAAAAAAAAAAAAA0SJEAAAAAAAABAAAAHgAECAAACByxkAMwzoAQRgCBACRCQwCCCAAgIgAoiAAGbIodNiKEsZuieCDlwBEP6AfwYAgAAEAAAAAAAAAAgAAAAAAAAAAAAAAAAA==

> <PUBCHEM_IUPAC_OPENEYE_NAME>
(2S,3R,4S,5R)-2-[(3R,4R,5R,6S)-6-[(3R,4R,5R,6S)-4,5-dihydroxy-6-(4-nitrophenoxy)tetrahydropyran-3-yl]oxy-4,5-dihydroxy-tetrahydropyran-3-yl]oxytetrahydropyran-3,4,5-triol

> <PUBCHEM_IUPAC_CAS_NAME>
(2S,3R,4S,5R)-2-[[(3R,4R,5R,6S)-6-[[(3R,4R,5R,6S)-4,5-dihydroxy-6-(4-nitrophenoxy)-3-oxanyl]oxy]-4,5-dihydroxy-3-oxanyl]oxy]oxane-3,4,5-triol

> <PUBCHEM_IUPAC_NAME_MARKUP>
(2<I>S</I>,3<I>R</I>,4<I>S</I>,5<I>R</I>)-2-[(3<I>R</I>,4<I>R</I>,5<I>R</I>,6<I>S</I>)-6-[(3<I>R</I>,4<I>R</I>,5<I>R</I>,6<I>S</I>)-4,5-dihydroxy-6-(4-nitrophenoxy)oxan-3-yl]oxy-4,5-dihydroxyoxan-3-yl]oxyoxane-3,4,5-triol

> <PUBCHEM_IUPAC_NAME>
(2S,3R,4S,5R)-2-[(3R,4R,5R,6S)-6-[(3R,4R,5R,6S)-4,5-dihydroxy-6-(4-nitrophenoxy)oxan-3-yl]oxy-4,5-dihydroxyoxan-3-yl]oxyoxane-3,4,5-triol

> <PUBCHEM_IUPAC_SYSTEMATIC_NAME>
(2S,3R,4S,5R)-2-[(3R,4R,5R,6S)-6-[(3R,4R,5R,6S)-6-(4-nitrophenoxy)-4,5-bis(oxidanyl)oxan-3-yl]oxy-4,5-bis(oxidanyl)oxan-3-yl]oxyoxane-3,4,5-triol

> <PUBCHEM_IUPAC_TRADITIONAL_NAME>
(2S,3R,4S,5R)-2-[(3R,4R,5R,6S)-6-[(3R,4R,5R,6S)-4,5-dihydroxy-6-(4-nitrophenoxy)tetrahydropyran-3-yl]oxy-4,5-dihydroxy-tetrahydropyran-3-yl]oxytetrahydropyran-3,4,5-triol

> <PUBCHEM_IUPAC_INCHI>
InChI=1S/C21H29NO15/c23-10-5-32-20(16(27)13(10)24)36-12-7-34-21(18(29)15(12)26)37-11-6-33-19(17(28)14(11)25)35-9-3-1-8(2-4-9)22(30)31/h1-4,10-21,23-29H,5-7H2/t10-,11-,12-,13+,14+,15+,16-,17-,18-,19+,20+,21+/m1/s1

> <PUBCHEM_IUPAC_INCHIKEY>
HJRGODZIIOLZRT-MVOFOWCMSA-N

> <PUBCHEM_XLOGP3_AA>
-3.4

> <PUBCHEM_EXACT_MASS>
535.15371922

> <PUBCHEM_MOLECULAR_FORMULA>
C21H29NO15

> <PUBCHEM_MOLECULAR_WEIGHT>
535.5

> <PUBCHEM_OPENEYE_CAN_SMILES>
C1C(C(C(C(O1)OC2COC(C(C2O)O)OC3COC(C(C3O)O)OC4=CC=C(C=C4)[N+](=O)[O-])O)O)O

> <PUBCHEM_OPENEYE_ISO_SMILES>
C1[C@H]([C@@H]([C@H]([C@@H](O1)O[C@@H]2CO[C@H]([C@@H]([C@H]2O)O)O[C@@H]3CO[C@H]([C@@H]([C@H]3O)O)OC4=CC=C(C=C4)[N+](=O)[O-])O)O)O

> <PUBCHEM_CACTVS_TPSA>
243

> <PUBCHEM_MONOISOTOPIC_WEIGHT>
535.15371922

> <PUBCHEM_TOTAL_CHARGE>
0

> <PUBCHEM_HEAVY_ATOM_COUNT>
37

> <PUBCHEM_ATOM_DEF_STEREO_COUNT>
12

> <PUBCHEM_ATOM_UDEF_STEREO_COUNT>
0

> <PUBCHEM_BOND_DEF_STEREO_COUNT>
0

> <PUBCHEM_BOND_UDEF_STEREO_COUNT>
0

> <PUBCHEM_ISOTOPIC_ATOM_COUNT>
0

> <PUBCHEM_COMPONENT_COUNT>
1

> <PUBCHEM_CACTVS_TAUTO_COUNT>
-1

> <PUBCHEM_COORDINATE_TYPE>
1
5
255

> <PUBCHEM_BONDANNOTATIONS>
20  1  6
21  1  6
26  10  6
29  11  5
27  12  5
30  13  6
17  2  5
24  2  5
32  33  8
32  34  8
33  35  8
34  36  8
35  37  8
36  37  8
18  6  6
19  7  5
23  8  5
25  9  6

$$$$
