 
  -OEChem-10192103362D

 34 35  0     1  0  0  0  0  0999 V2000
    3.4206    1.9646    0.0000 O   0  0  0  0  0  0  0  0  0  0  0  0
    7.8942    1.9580    0.0000 O   0  0  0  0  0  0  0  0  0  0  0  0
    7.8942   -1.9649    0.0000 O   0  0  0  0  0  0  0  0  0  0  0  0
    2.6200   -0.8694    0.0000 O   0  0  0  0  0  0  0  0  0  0  0  0
    5.0679    2.4998    0.0000 O   0  0  0  0  0  0  0  0  0  0  0  0
    6.2479    2.4961    0.0000 O   0  0  0  0  0  0  0  0  0  0  0  0
    6.2479   -2.5030    0.0000 O   0  0  0  0  0  0  0  0  0  0  0  0
    2.6200    0.8626    0.0000 O   0  0  0  0  0  0  0  0  0  0  0  0
    5.6588    0.4966    0.0000 C   0  0  3  0  0  0  0  0  0  0  0  0
    5.6588   -0.5034    0.0000 C   0  0  3  0  0  0  0  0  0  0  0  0
    4.7078    0.8056    0.0000 C   0  0  3  0  0  0  0  0  0  0  0  0
    6.6051    0.8013    0.0000 C   0  0  3  0  0  0  0  0  0  0  0  0
    6.6051   -0.8082    0.0000 C   0  0  3  0  0  0  0  0  0  0  0  0
    4.7078   -0.8124    0.0000 C   0  0  0  0  0  0  0  0  0  0  0  0
    4.1200   -0.0034    0.0000 C   0  0  3  0  0  0  0  0  0  0  0  0
    7.1887   -0.0034    0.0000 C   0  0  0  0  0  0  0  0  0  0  0  0
    4.3988    1.7566    0.0000 C   0  0  0  0  0  0  0  0  0  0  0  0
    6.9157    1.7518    0.0000 C   0  0  0  0  0  0  0  0  0  0  0  0
    6.9157   -1.7587    0.0000 C   0  0  0  0  0  0  0  0  0  0  0  0
    3.1200   -0.0034    0.0000 C   0  0  0  0  0  0  0  0  0  0  0  0
    5.6596    1.1166    0.0000 H   0  0  0  0  0  0  0  0  0  0  0  0
    5.6596   -1.1234    0.0000 H   0  0  0  0  0  0  0  0  0  0  0  0
    4.0954    0.9026    0.0000 H   0  0  0  0  0  0  0  0  0  0  0  0
    7.2176    0.8975    0.0000 H   0  0  0  0  0  0  0  0  0  0  0  0
    7.2176   -0.9044    0.0000 H   0  0  0  0  0  0  0  0  0  0  0  0
    4.1708   -1.1224    0.0000 H   0  0  0  0  0  0  0  0  0  0  0  0
    4.9600   -1.3788    0.0000 H   0  0  0  0  0  0  0  0  0  0  0  0
    3.8385   -0.5558    0.0000 H   0  0  0  0  0  0  0  0  0  0  0  0
    7.6495   -0.4182    0.0000 H   0  0  0  0  0  0  0  0  0  0  0  0
    7.6495    0.4113    0.0000 H   0  0  0  0  0  0  0  0  0  0  0  0
    3.2290    2.5542    0.0000 H   0  0  0  0  0  0  0  0  0  0  0  0
    8.0868    2.5474    0.0000 H   0  0  0  0  0  0  0  0  0  0  0  0
    8.0868   -2.5542    0.0000 H   0  0  0  0  0  0  0  0  0  0  0  0
    2.0000   -0.8694    0.0000 H   0  0  0  0  0  0  0  0  0  0  0  0
  1 17  1  0  0  0  0
  1 31  1  0  0  0  0
  2 18  1  0  0  0  0
  2 32  1  0  0  0  0
  3 19  1  0  0  0  0
  3 33  1  0  0  0  0
  4 20  1  0  0  0  0
  4 34  1  0  0  0  0
  5 17  2  0  0  0  0
  6 18  2  0  0  0  0
  7 19  2  0  0  0  0
  8 20  2  0  0  0  0
  9 10  1  0  0  0  0
  9 11  1  0  0  0  0
  9 12  1  0  0  0  0
  9 21  1  0  0  0  0
 10 13  1  0  0  0  0
 10 14  1  0  0  0  0
 10 22  1  0  0  0  0
 11 15  1  0  0  0  0
 11 17  1  0  0  0  0
 11 23  1  0  0  0  0
 12 16  1  0  0  0  0
 12 18  1  0  0  0  0
 12 24  1  0  0  0  0
 13 16  1  0  0  0  0
 13 19  1  0  0  0  0
 13 25  1  0  0  0  0
 14 15  1  0  0  0  0
 14 26  1  0  0  0  0
 14 27  1  0  0  0  0
 15 20  1  0  0  0  0
 15 28  1  0  0  0  0
 16 29  1  0  0  0  0
 16 30  1  0  0  0  0
M  END
> <PUBCHEM_COMPOUND_CID>
70500204

> <PUBCHEM_COMPOUND_CANONICALIZED>
1

> <PUBCHEM_CACTVS_COMPLEXITY>
484

> <PUBCHEM_CACTVS_HBOND_ACCEPTOR>
8

> <PUBCHEM_CACTVS_HBOND_DONOR>
4

> <PUBCHEM_CACTVS_ROTATABLE_BOND>
4

> <PUBCHEM_CACTVS_SUBSKEYS>
AAADccBwPAAAAAAAAAAAAAAAAAAAAYMAAAAAAAAAAAAYAAAAAAAAGgAACAAADQCAgAAACAAAAgAIAACQCAAAAAAAAAAAAAEAAAAAABIAAAAAQAAEAAAAAAHL7vCOgAAAAAAAAAAAAAAAAAAAAQAACAAAAA==

> <PUBCHEM_IUPAC_OPENEYE_NAME>
1,2,3,3a,4,5,6,6a-octahydropentalene-1,2,4,6-tetracarboxylic acid

> <PUBCHEM_IUPAC_CAS_NAME>
1,2,3,3a,4,5,6,6a-octahydropentalene-1,2,4,6-tetracarboxylic acid

> <PUBCHEM_IUPAC_NAME_MARKUP>
1,2,3,3<I>a</I>,4,5,6,6<I>a</I>-octahydropentalene-1,2,4,6-tetracarboxylic acid

> <PUBCHEM_IUPAC_NAME>
1,2,3,3a,4,5,6,6a-octahydropentalene-1,2,4,6-tetracarboxylic acid

> <PUBCHEM_IUPAC_SYSTEMATIC_NAME>
1,2,3,3a,4,5,6,6a-octahydropentalene-1,2,4,6-tetracarboxylic acid

> <PUBCHEM_IUPAC_TRADITIONAL_NAME>
1,2,3,3a,4,5,6,6a-octahydropentalene-1,2,4,6-tetracarboxylic acid

> <PUBCHEM_IUPAC_INCHI>
InChI=1S/C12H14O8/c13-9(14)4-2-5(10(15)16)7-3(4)1-6(11(17)18)8(7)12(19)20/h3-8H,1-2H2,(H,13,14)(H,15,16)(H,17,18)(H,19,20)

> <PUBCHEM_IUPAC_INCHIKEY>
HYUJPLKMHIGQDS-UHFFFAOYSA-N

> <PUBCHEM_XLOGP3_AA>
-0.9

> <PUBCHEM_EXACT_MASS>
286.06886740

> <PUBCHEM_MOLECULAR_FORMULA>
C12H14O8

> <PUBCHEM_MOLECULAR_WEIGHT>
286.23

> <PUBCHEM_OPENEYE_CAN_SMILES>
C1C2C(CC(C2C(C1C(=O)O)C(=O)O)C(=O)O)C(=O)O

> <PUBCHEM_OPENEYE_ISO_SMILES>
C1C2C(CC(C2C(C1C(=O)O)C(=O)O)C(=O)O)C(=O)O

> <PUBCHEM_CACTVS_TPSA>
149

> <PUBCHEM_MONOISOTOPIC_WEIGHT>
286.06886740

> <PUBCHEM_TOTAL_CHARGE>
0

> <PUBCHEM_HEAVY_ATOM_COUNT>
20

> <PUBCHEM_ATOM_DEF_STEREO_COUNT>
0

> <PUBCHEM_ATOM_UDEF_STEREO_COUNT>
6

> <PUBCHEM_BOND_DEF_STEREO_COUNT>
0

> <PUBCHEM_BOND_UDEF_STEREO_COUNT>
0

> <PUBCHEM_ISOTOPIC_ATOM_COUNT>
0

> <PUBCHEM_COMPONENT_COUNT>
1

> <PUBCHEM_CACTVS_TAUTO_COUNT>
-1

> <PUBCHEM_COORDINATE_TYPE>
1
5
255

> <PUBCHEM_BONDANNOTATIONS>
10  14  3
11  17  3
12  18  3
13  19  3
15  20  3
9  12  3

$$$$
