 
  -OEChem-10192103272D

 17 17  0     1  0  0  0  0  0999 V2000
    4.5576   -1.0116    0.0000 O   0  0  0  0  0  0  0  0  0  0  0  0
    3.4699    1.3362    0.0000 O   0  0  0  0  0  0  0  0  0  0  0  0
    5.6454    1.3362    0.0000 O   0  0  0  0  0  0  0  0  0  0  0  0
    6.3177   -0.7329    0.0000 O   0  0  0  0  0  0  0  0  0  0  0  0
    2.5896   -1.7110    0.0000 O   0  0  0  0  0  0  0  0  0  0  0  0
    2.0544   -0.0637    0.0000 O   0  0  0  0  0  0  0  0  0  0  0  0
    4.0576    0.5272    0.0000 C   0  0  1  0  0  0  0  0  0  0  0  0
    3.7486   -0.4239    0.0000 C   0  0  2  0  0  0  0  0  0  0  0  0
    5.0576    0.5272    0.0000 C   0  0  1  0  0  0  0  0  0  0  0  0
    5.3667   -0.4239    0.0000 C   0  0  0  0  0  0  0  0  0  0  0  0
    2.7976   -0.7329    0.0000 C   0  0  0  0  0  0  0  0  0  0  0  0
    3.4453    0.4302    0.0000 H   0  0  0  0  0  0  0  0  0  0  0  0
    3.6516   -1.0362    0.0000 H   0  0  0  0  0  0  0  0  0  0  0  0
    4.7762    1.0796    0.0000 H   0  0  0  0  0  0  0  0  0  0  0  0
    3.7220    1.9026    0.0000 H   0  0  0  0  0  0  0  0  0  0  0  0
    6.2620    1.2714    0.0000 H   0  0  0  0  0  0  0  0  0  0  0  0
    2.0000   -1.9026    0.0000 H   0  0  0  0  0  0  0  0  0  0  0  0
  1  8  1  0  0  0  0
  1 10  1  0  0  0  0
  7  2  1  6  0  0  0
  2 15  1  0  0  0  0
  9  3  1  6  0  0  0
  3 16  1  0  0  0  0
  4 10  2  0  0  0  0
  5 11  1  0  0  0  0
  5 17  1  0  0  0  0
  6 11  2  0  0  0  0
  7  8  1  0  0  0  0
  7  9  1  0  0  0  0
  7 12  1  0  0  0  0
  8 11  1  1  0  0  0
  8 13  1  0  0  0  0
  9 10  1  0  0  0  0
  9 14  1  0  0  0  0
M  END
> <PUBCHEM_COMPOUND_CID>
58626895

> <PUBCHEM_COMPOUND_CANONICALIZED>
1

> <PUBCHEM_CACTVS_COMPLEXITY>
199

> <PUBCHEM_CACTVS_HBOND_ACCEPTOR>
6

> <PUBCHEM_CACTVS_HBOND_DONOR>
3

> <PUBCHEM_CACTVS_ROTATABLE_BOND>
1

> <PUBCHEM_CACTVS_SUBSKEYS>
AAADcYBgOAAAAAAAAAAAAAAAAAAAASAAAAAAAAAAAAAAAAAAAAAAGgAACAAACBSggAIACAAABgAIAACQCAIAAAAAAAAAAAFAAAABEBYAAAQCQAAFIAADAADKJgAAAAAAAAAAAAAAAAAAAAAAAAAAAAAAAA==

> <PUBCHEM_IUPAC_OPENEYE_NAME>
(2R,3R,4S)-3,4-dihydroxy-5-oxo-tetrahydrofuran-2-carboxylic acid

> <PUBCHEM_IUPAC_CAS_NAME>
(2R,3R,4S)-3,4-dihydroxy-5-oxo-2-oxolanecarboxylic acid

> <PUBCHEM_IUPAC_NAME_MARKUP>
(2<I>R</I>,3<I>R</I>,4<I>S</I>)-3,4-dihydroxy-5-oxooxolane-2-carboxylic acid

> <PUBCHEM_IUPAC_NAME>
(2R,3R,4S)-3,4-dihydroxy-5-oxooxolane-2-carboxylic acid

> <PUBCHEM_IUPAC_SYSTEMATIC_NAME>
(2R,3R,4S)-3,4-bis(oxidanyl)-5-oxidanylidene-oxolane-2-carboxylic acid

> <PUBCHEM_IUPAC_TRADITIONAL_NAME>
(2R,3R,4S)-3,4-dihydroxy-5-keto-tetrahydrofuran-2-carboxylic acid

> <PUBCHEM_IUPAC_INCHI>
InChI=1S/C5H6O6/c6-1-2(7)5(10)11-3(1)4(8)9/h1-3,6-7H,(H,8,9)/t1-,2+,3-/m1/s1

> <PUBCHEM_IUPAC_INCHIKEY>
BSPZKKBWTBYQOH-GJBJXMDJSA-N

> <PUBCHEM_XLOGP3_AA>
-1.2

> <PUBCHEM_EXACT_MASS>
162.01643791

> <PUBCHEM_MOLECULAR_FORMULA>
C5H6O6

> <PUBCHEM_MOLECULAR_WEIGHT>
162.10

> <PUBCHEM_OPENEYE_CAN_SMILES>
C1(C(C(=O)OC1C(=O)O)O)O

> <PUBCHEM_OPENEYE_ISO_SMILES>
[C@H]1([C@@H](C(=O)O[C@H]1C(=O)O)O)O

> <PUBCHEM_CACTVS_TPSA>
104

> <PUBCHEM_MONOISOTOPIC_WEIGHT>
162.01643791

> <PUBCHEM_TOTAL_CHARGE>
0

> <PUBCHEM_HEAVY_ATOM_COUNT>
11

> <PUBCHEM_ATOM_DEF_STEREO_COUNT>
3

> <PUBCHEM_ATOM_UDEF_STEREO_COUNT>
0

> <PUBCHEM_BOND_DEF_STEREO_COUNT>
0

> <PUBCHEM_BOND_UDEF_STEREO_COUNT>
0

> <PUBCHEM_ISOTOPIC_ATOM_COUNT>
0

> <PUBCHEM_COMPONENT_COUNT>
1

> <PUBCHEM_CACTVS_TAUTO_COUNT>
-1

> <PUBCHEM_COORDINATE_TYPE>
1
5
255

> <PUBCHEM_BONDANNOTATIONS>
7  2  6
9  3  6
8  11  5

$$$$
