 
  -OEChem-10192104282D

 50 52  0     1  0  0  0  0  0999 V2000
    3.7320    2.3819    0.0000 S   0  0  0  0  0  0  0  0  0  0  0  0
    8.7924   -2.8859    0.0000 S   0  0  0  0  0  0  0  0  0  0  0  0
    4.5989    1.8834    0.0000 O   0  0  0  0  0  0  0  0  0  0  0  0
    6.9942    1.1102    0.0000 O   0  0  0  0  0  0  0  0  0  0  0  0
    2.8459    0.6074    0.0000 O   0  0  0  0  0  0  0  0  0  0  0  0
    7.7979   -2.9904    0.0000 O   0  0  0  0  0  0  0  0  0  0  0  0
    5.6297   -2.9923    0.0000 O   0  0  0  0  0  0  0  0  0  0  0  0
    8.4697   -0.9289    0.0000 O   0  0  0  0  0  0  0  0  0  0  0  0
    4.2306    3.2488    0.0000 O   0  0  0  0  0  0  0  0  0  0  0  0
    3.2336    1.5150    0.0000 O   0  0  0  0  0  0  0  0  0  0  0  0
    8.8970   -3.8804    0.0000 O   0  0  0  0  0  0  0  0  0  0  0  0
    8.6879   -1.8914    0.0000 O   0  0  0  0  0  0  0  0  0  0  0  0
    3.7970    0.2984    0.0000 N   0  3  0  0  0  0  0  0  0  0  0  0
    7.2101   -2.1814    0.0000 N   0  0  0  0  0  0  0  0  0  0  0  0
    5.0974   -0.6499    0.0000 C   0  0  3  0  0  0  0  0  0  0  0  0
    5.4064    0.3012    0.0000 C   0  0  3  0  0  0  0  0  0  0  0  0
    5.9064   -1.2376    0.0000 C   0  0  3  0  0  0  0  0  0  0  0  0
    6.7154   -0.6499    0.0000 C   0  0  3  0  0  0  0  0  0  0  0  0
    4.6007    0.8834    0.0000 C   0  0  3  0  0  0  0  0  0  0  0  0
    4.1033   -0.6473    0.0000 C   0  0  0  0  0  0  0  0  0  0  0  0
    6.4064    0.3012    0.0000 C   0  0  0  0  0  0  0  0  0  0  0  0
    6.2160   -2.1823    0.0000 C   0  0  0  0  0  0  0  0  0  0  0  0
    7.5181   -1.2362    0.0000 C   0  0  0  0  0  0  0  0  0  0  0  0
    2.8652    2.8804    0.0000 C   0  0  0  0  0  0  0  0  0  0  0  0
    9.7870   -2.7814    0.0000 C   0  0  0  0  0  0  0  0  0  0  0  0
    2.8634    3.8804    0.0000 C   0  0  0  0  0  0  0  0  0  0  0  0
    2.0000    2.3789    0.0000 C   0  0  0  0  0  0  0  0  0  0  0  0
   10.3747   -3.5904    0.0000 C   0  0  0  0  0  0  0  0  0  0  0  0
   10.1937   -1.8678    0.0000 C   0  0  0  0  0  0  0  0  0  0  0  0
    4.9050   -1.2393    0.0000 H   0  0  0  0  0  0  0  0  0  0  0  0
    5.5972    0.8911    0.0000 H   0  0  0  0  0  0  0  0  0  0  0  0
    5.4053   -1.6027    0.0000 H   0  0  0  0  0  0  0  0  0  0  0  0
    7.2175   -0.2861    0.0000 H   0  0  0  0  0  0  0  0  0  0  0  0
    4.0479    1.1642    0.0000 H   0  0  0  0  0  0  0  0  0  0  0  0
    3.4967   -0.7753    0.0000 H   0  0  0  0  0  0  0  0  0  0  0  0
    4.1669   -1.2640    0.0000 H   0  0  0  0  0  0  0  0  0  0  0  0
    2.3277    3.1895    0.0000 H   0  0  0  0  0  0  0  0  0  0  0  0
   10.4036   -2.7166    0.0000 H   0  0  0  0  0  0  0  0  0  0  0  0
    3.4834    3.8815    0.0000 H   0  0  0  0  0  0  0  0  0  0  0  0
    2.8624    4.5004    0.0000 H   0  0  0  0  0  0  0  0  0  0  0  0
    2.2434    3.8793    0.0000 H   0  0  0  0  0  0  0  0  0  0  0  0
    1.6891    2.9153    0.0000 H   0  0  0  0  0  0  0  0  0  0  0  0
    1.4636    2.0680    0.0000 H   0  0  0  0  0  0  0  0  0  0  0  0
    2.3109    1.8425    0.0000 H   0  0  0  0  0  0  0  0  0  0  0  0
    9.8732   -3.9548    0.0000 H   0  0  0  0  0  0  0  0  0  0  0  0
   10.7392   -4.0920    0.0000 H   0  0  0  0  0  0  0  0  0  0  0  0
   10.8763   -3.2260    0.0000 H   0  0  0  0  0  0  0  0  0  0  0  0
   10.7601   -2.1200    0.0000 H   0  0  0  0  0  0  0  0  0  0  0  0
   10.4459   -1.3014    0.0000 H   0  0  0  0  0  0  0  0  0  0  0  0
    9.6273   -1.6156    0.0000 H   0  0  0  0  0  0  0  0  0  0  0  0
  1  3  1  0  0  0  0
  1  9  2  0  0  0  0
  1 10  2  0  0  0  0
  1 24  1  0  0  0  0
  2  6  1  0  0  0  0
  2 11  2  0  0  0  0
  2 12  2  0  0  0  0
  2 25  1  0  0  0  0
  3 19  1  0  0  0  0
  4 21  2  0  0  0  0
  5 13  2  0  0  0  0
  6 14  1  0  0  0  0
  7 22  2  0  0  0  0
  8 23  2  0  0  0  0
 13 19  1  0  0  0  0
 13 20  1  0  0  0  0
 14 22  1  0  0  0  0
 14 23  1  0  0  0  0
 15 16  1  0  0  0  0
 15 17  1  0  0  0  0
 15 20  1  0  0  0  0
 15 30  1  0  0  0  0
 16 19  1  0  0  0  0
 16 21  1  0  0  0  0
 16 31  1  0  0  0  0
 17 18  1  0  0  0  0
 17 22  1  0  0  0  0
 17 32  1  0  0  0  0
 18 21  1  0  0  0  0
 18 23  1  0  0  0  0
 18 33  1  0  0  0  0
 19 34  1  0  0  0  0
 20 35  1  0  0  0  0
 20 36  1  0  0  0  0
 24 26  1  0  0  0  0
 24 27  1  0  0  0  0
 24 37  1  0  0  0  0
 25 28  1  0  0  0  0
 25 29  1  0  0  0  0
 25 38  1  0  0  0  0
 26 39  1  0  0  0  0
 26 40  1  0  0  0  0
 26 41  1  0  0  0  0
 27 42  1  0  0  0  0
 27 43  1  0  0  0  0
 27 44  1  0  0  0  0
 28 45  1  0  0  0  0
 28 46  1  0  0  0  0
 28 47  1  0  0  0  0
 29 48  1  0  0  0  0
 29 49  1  0  0  0  0
 29 50  1  0  0  0  0
M  CHG  1  13   1
M  END
> <PUBCHEM_COMPOUND_CID>
87733846

> <PUBCHEM_COMPOUND_CANONICALIZED>
1

> <PUBCHEM_CACTVS_COMPLEXITY>
989

> <PUBCHEM_CACTVS_HBOND_ACCEPTOR>
10

> <PUBCHEM_CACTVS_HBOND_DONOR>
0

> <PUBCHEM_CACTVS_ROTATABLE_BOND>
6

> <PUBCHEM_CACTVS_SUBSKEYS>
AAADceBzPABgAAAAAAAAAAAAAAAAAeLEAAAAAAAAAAAWLAAAAAAAHgQEAAAADQTlwAaCAAIQAAIJAIEQEnBAAAAAAAAgAAEIAAAAAB4IgAAEAAAEJCCAAAG93zKugAAAAAAAAAAAAAAAAAAAAQAACAAAAA==

> <PUBCHEM_IUPAC_OPENEYE_NAME>
(10-isopropylsulfonyloxy-4,7,9,11-tetraoxo-10-aza-4-azoniatricyclo[6.3.0.02,6]undecan-5-yl) propane-2-sulfonate

> <PUBCHEM_IUPAC_CAS_NAME>
2-propanesulfonic acid

> <PUBCHEM_IUPAC_NAME_MARKUP>
(4,7,9,11-tetraoxo-10-propan-2-ylsulfonyloxy-10-aza-4-azoniatricyclo[6.3.0.0<SUP>2,6</SUP>]undecan-5-yl) propane-2-sulfonate

> <PUBCHEM_IUPAC_NAME>
(4,7,9,11-tetraoxo-10-propan-2-ylsulfonyloxy-10-aza-4-azoniatricyclo[6.3.0.02,6]undecan-5-yl) propane-2-sulfonate

> <PUBCHEM_IUPAC_SYSTEMATIC_NAME>
[4,7,9,11-tetrakis(oxidanylidene)-10-propan-2-ylsulfonyloxy-10-aza-4-azoniatricyclo[6.3.0.02,6]undecan-5-yl] propane-2-sulfonate

> <PUBCHEM_IUPAC_TRADITIONAL_NAME>
propane-2-sulfonic acid (10-isopropylsulfonyloxy-4,7,9,11-tetraketo-10-aza-4-azoniatricyclo[6.3.0.02,6]undecan-5-yl) ester

> <PUBCHEM_IUPAC_INCHI>
InChI=1S/C15H21N2O10S2/c1-6(2)28(22,23)26-15-10-8(5-16(15)21)9-11(12(10)18)14(20)17(13(9)19)27-29(24,25)7(3)4/h6-11,15H,5H2,1-4H3/q+1

> <PUBCHEM_IUPAC_INCHIKEY>
OVNLHTISAWUGQX-UHFFFAOYSA-N

> <PUBCHEM_XLOGP3_AA>
-1

> <PUBCHEM_EXACT_MASS>
453.06376222

> <PUBCHEM_MOLECULAR_FORMULA>
C15H21N2O10S2+

> <PUBCHEM_MOLECULAR_WEIGHT>
453.5

> <PUBCHEM_OPENEYE_CAN_SMILES>
CC(C)S(=O)(=O)OC1C2C(C[N+]1=O)C3C(C2=O)C(=O)N(C3=O)OS(=O)(=O)C(C)C

> <PUBCHEM_OPENEYE_ISO_SMILES>
CC(C)S(=O)(=O)OC1C2C(C[N+]1=O)C3C(C2=O)C(=O)N(C3=O)OS(=O)(=O)C(C)C

> <PUBCHEM_CACTVS_TPSA>
178

> <PUBCHEM_MONOISOTOPIC_WEIGHT>
453.06376222

> <PUBCHEM_TOTAL_CHARGE>
1

> <PUBCHEM_HEAVY_ATOM_COUNT>
29

> <PUBCHEM_ATOM_DEF_STEREO_COUNT>
0

> <PUBCHEM_ATOM_UDEF_STEREO_COUNT>
5

> <PUBCHEM_BOND_DEF_STEREO_COUNT>
0

> <PUBCHEM_BOND_UDEF_STEREO_COUNT>
0

> <PUBCHEM_ISOTOPIC_ATOM_COUNT>
0

> <PUBCHEM_COMPONENT_COUNT>
1

> <PUBCHEM_CACTVS_TAUTO_COUNT>
-1

> <PUBCHEM_COORDINATE_TYPE>
1
5
255

> <PUBCHEM_BONDANNOTATIONS>
15  20  3
16  21  3
17  22  3
18  21  3
19  3  3

$$$$
