 
  -OEChem-10192104322D

 85 89  0     1  0  0  0  0  0999 V2000
    5.7726   -2.9697    0.0000 O   0  0  0  0  0  0  0  0  0  0  0  0
   11.1246    3.2439    0.0000 O   0  0  0  0  0  0  0  0  0  0  0  0
    3.2914   -2.7672    0.0000 O   0  0  0  0  0  0  0  0  0  0  0  0
    4.5096   -3.3859    0.0000 O   0  0  0  0  0  0  0  0  0  0  0  0
   11.7572    0.7838    0.0000 O   0  0  0  0  0  0  0  0  0  0  0  0
    7.5167    0.0995    0.0000 C   0  0  2  0  0  0  0  0  0  0  0  0
    7.5167    1.0995    0.0000 C   0  0  3  0  0  0  0  0  0  0  0  0
    8.4106    1.6342    0.0000 C   0  0  2  0  0  0  0  0  0  0  0  0
    6.6507   -0.4005    0.0000 C   0  0  3  0  0  0  0  0  0  0  0  0
    9.3167    1.1204    0.0000 C   0  0  3  0  0  0  0  0  0  0  0  0
    8.4106   -0.4351    0.0000 C   0  0  0  0  0  0  0  0  0  0  0  0
    5.7847    0.0995    0.0000 C   0  0  0  0  0  0  0  0  0  0  0  0
    4.8746   -0.4073    0.0000 C   0  0  3  0  0  0  0  0  0  0  0  0
    4.8666   -1.4489    0.0000 C   0  0  1  0  0  0  0  0  0  0  0  0
    9.3167    0.0787    0.0000 C   0  0  0  0  0  0  0  0  0  0  0  0
   10.2605    1.6556    0.0000 C   0  0  1  0  0  0  0  0  0  0  0  0
    6.6667   -1.4420    0.0000 C   0  0  0  0  0  0  0  0  0  0  0  0
    6.6507    1.5995    0.0000 C   0  0  0  0  0  0  0  0  0  0  0  0
    8.3856    2.7189    0.0000 C   0  0  0  0  0  0  0  0  0  0  0  0
    5.7687   -1.9697    0.0000 C   0  0  3  0  0  0  0  0  0  0  0  0
    7.8588   -0.8401    0.0000 C   0  0  0  0  0  0  0  0  0  0  0  0
    5.7847    1.0995    0.0000 C   0  0  0  0  0  0  0  0  0  0  0  0
   10.2605    2.7406    0.0000 C   0  0  2  0  0  0  0  0  0  0  0  0
    7.5408    2.1275    0.0000 C   0  0  0  0  0  0  0  0  0  0  0  0
    7.2935   -1.1665    0.0000 C   0  0  0  0  0  0  0  0  0  0  0  0
    3.9478    0.1568    0.0000 C   0  0  0  0  0  0  0  0  0  0  0  0
    9.3167    3.2758    0.0000 C   0  0  0  0  0  0  0  0  0  0  0  0
    3.9312   -1.9986    0.0000 C   0  0  3  0  0  0  0  0  0  0  0  0
    2.9999   -0.3712    0.0000 C   0  0  0  0  0  0  0  0  0  0  0  0
    2.9916   -1.4561    0.0000 C   0  0  0  0  0  0  0  0  0  0  0  0
    4.8589   -2.4489    0.0000 C   0  0  0  0  0  0  0  0  0  0  0  0
   11.2605    1.6517    0.0000 C   0  0  0  0  0  0  0  0  0  0  0  0
   10.7572    0.7876    0.0000 C   0  0  0  0  0  0  0  0  0  0  0  0
    2.0000   -0.3596    0.0000 C   0  0  0  0  0  0  0  0  0  0  0  0
    2.5100    0.5006    0.0000 C   0  0  0  0  0  0  0  0  0  0  0  0
    8.0560    0.7937    0.0000 H   0  0  0  0  0  0  0  0  0  0  0  0
    9.8524    0.8083    0.0000 H   0  0  0  0  0  0  0  0  0  0  0  0
    8.0060   -0.9049    0.0000 H   0  0  0  0  0  0  0  0  0  0  0  0
    8.8043   -0.9141    0.0000 H   0  0  0  0  0  0  0  0  0  0  0  0
    4.8866    0.2126    0.0000 H   0  0  0  0  0  0  0  0  0  0  0  0
    9.5258   -0.5050    0.0000 H   0  0  0  0  0  0  0  0  0  0  0  0
    9.9276    0.1848    0.0000 H   0  0  0  0  0  0  0  0  0  0  0  0
    6.8848   -2.0224    0.0000 H   0  0  0  0  0  0  0  0  0  0  0  0
    7.2759   -1.3265    0.0000 H   0  0  0  0  0  0  0  0  0  0  0  0
    7.0492    2.0745    0.0000 H   0  0  0  0  0  0  0  0  0  0  0  0
    6.2522    2.0745    0.0000 H   0  0  0  0  0  0  0  0  0  0  0  0
    8.1631    3.2976    0.0000 H   0  0  0  0  0  0  0  0  0  0  0  0
    7.7773    2.5987    0.0000 H   0  0  0  0  0  0  0  0  0  0  0  0
    6.3074   -2.2766    0.0000 H   0  0  0  0  0  0  0  0  0  0  0  0
    7.2762   -1.0522    0.0000 H   0  0  0  0  0  0  0  0  0  0  0  0
    8.0709   -1.4227    0.0000 H   0  0  0  0  0  0  0  0  0  0  0  0
    8.4414   -0.6280    0.0000 H   0  0  0  0  0  0  0  0  0  0  0  0
    5.2477    1.4095    0.0000 H   0  0  0  0  0  0  0  0  0  0  0  0
   10.7980    2.4316    0.0000 H   0  0  0  0  0  0  0  0  0  0  0  0
    7.8466    2.6668    0.0000 H   0  0  0  0  0  0  0  0  0  0  0  0
    7.0015    2.4334    0.0000 H   0  0  0  0  0  0  0  0  0  0  0  0
    7.2349    1.5882    0.0000 H   0  0  0  0  0  0  0  0  0  0  0  0
    6.8185   -1.5650    0.0000 H   0  0  0  0  0  0  0  0  0  0  0  0
    7.6920   -1.6415    0.0000 H   0  0  0  0  0  0  0  0  0  0  0  0
    7.7684   -0.7680    0.0000 H   0  0  0  0  0  0  0  0  0  0  0  0
    4.3560    0.6234    0.0000 H   0  0  0  0  0  0  0  0  0  0  0  0
    3.5579    0.6388    0.0000 H   0  0  0  0  0  0  0  0  0  0  0  0
    9.7103    3.7548    0.0000 H   0  0  0  0  0  0  0  0  0  0  0  0
    8.9121    3.7456    0.0000 H   0  0  0  0  0  0  0  0  0  0  0  0
    4.3325   -2.4713    0.0000 H   0  0  0  0  0  0  0  0  0  0  0  0
    2.3816   -1.3453    0.0000 H   0  0  0  0  0  0  0  0  0  0  0  0
    2.7780   -2.0382    0.0000 H   0  0  0  0  0  0  0  0  0  0  0  0
    5.3066   -2.8778    0.0000 H   0  0  0  0  0  0  0  0  0  0  0  0
    4.2492   -2.3365    0.0000 H   0  0  0  0  0  0  0  0  0  0  0  0
   11.8439    1.8615    0.0000 H   0  0  0  0  0  0  0  0  0  0  0  0
   11.1552    2.2627    0.0000 H   0  0  0  0  0  0  0  0  0  0  0  0
   10.2190    0.4797    0.0000 H   0  0  0  0  0  0  0  0  0  0  0  0
   11.0651    0.2495    0.0000 H   0  0  0  0  0  0  0  0  0  0  0  0
   11.2953    1.0956    0.0000 H   0  0  0  0  0  0  0  0  0  0  0  0
    6.3107   -3.2776    0.0000 H   0  0  0  0  0  0  0  0  0  0  0  0
    2.0072    0.2603    0.0000 H   0  0  0  0  0  0  0  0  0  0  0  0
    1.3800   -0.3524    0.0000 H   0  0  0  0  0  0  0  0  0  0  0  0
    1.9928   -0.9796    0.0000 H   0  0  0  0  0  0  0  0  0  0  0  0
    3.0505    0.8043    0.0000 H   0  0  0  0  0  0  0  0  0  0  0  0
    2.2062    1.0411    0.0000 H   0  0  0  0  0  0  0  0  0  0  0  0
    1.9695    0.1968    0.0000 H   0  0  0  0  0  0  0  0  0  0  0  0
   11.1222    3.8639    0.0000 H   0  0  0  0  0  0  0  0  0  0  0  0
    2.6804   -2.6619    0.0000 H   0  0  0  0  0  0  0  0  0  0  0  0
    4.9045   -3.8639    0.0000 H   0  0  0  0  0  0  0  0  0  0  0  0
   12.3771    0.7814    0.0000 H   0  0  0  0  0  0  0  0  0  0  0  0
  1 20  1  0  0  0  0
  1 75  1  0  0  0  0
 23  2  1  6  0  0  0
  2 82  1  0  0  0  0
  3 28  1  0  0  0  0
  3 83  1  0  0  0  0
  4 31  1  0  0  0  0
  4 84  1  0  0  0  0
  5 32  1  0  0  0  0
  5 85  1  0  0  0  0
  6  7  1  0  0  0  0
  6  9  1  0  0  0  0
  6 11  1  0  0  0  0
  6 21  1  6  0  0  0
  7  8  1  0  0  0  0
  7 18  1  0  0  0  0
  7 36  1  0  0  0  0
  8 10  1  0  0  0  0
  8 19  1  0  0  0  0
  8 24  1  6  0  0  0
  9 12  1  0  0  0  0
  9 17  1  0  0  0  0
  9 25  1  0  0  0  0
 10 15  1  0  0  0  0
 10 16  1  0  0  0  0
 10 37  1  0  0  0  0
 11 15  1  0  0  0  0
 11 38  1  0  0  0  0
 11 39  1  0  0  0  0
 12 13  1  0  0  0  0
 12 22  2  0  0  0  0
 13 14  1  0  0  0  0
 13 26  1  0  0  0  0
 13 40  1  0  0  0  0
 14 20  1  0  0  0  0
 14 28  1  0  0  0  0
 14 31  1  6  0  0  0
 15 41  1  0  0  0  0
 15 42  1  0  0  0  0
 16 23  1  0  0  0  0
 16 32  1  0  0  0  0
 16 33  1  6  0  0  0
 17 20  1  0  0  0  0
 17 43  1  0  0  0  0
 17 44  1  0  0  0  0
 18 22  1  0  0  0  0
 18 45  1  0  0  0  0
 18 46  1  0  0  0  0
 19 27  1  0  0  0  0
 19 47  1  0  0  0  0
 19 48  1  0  0  0  0
 20 49  1  0  0  0  0
 21 50  1  0  0  0  0
 21 51  1  0  0  0  0
 21 52  1  0  0  0  0
 22 53  1  0  0  0  0
 23 27  1  0  0  0  0
 23 54  1  0  0  0  0
 24 55  1  0  0  0  0
 24 56  1  0  0  0  0
 24 57  1  0  0  0  0
 25 58  1  0  0  0  0
 25 59  1  0  0  0  0
 25 60  1  0  0  0  0
 26 29  1  0  0  0  0
 26 61  1  0  0  0  0
 26 62  1  0  0  0  0
 27 63  1  0  0  0  0
 27 64  1  0  0  0  0
 28 30  1  0  0  0  0
 28 65  1  0  0  0  0
 29 30  1  0  0  0  0
 29 34  1  0  0  0  0
 29 35  1  0  0  0  0
 30 66  1  0  0  0  0
 30 67  1  0  0  0  0
 31 68  1  0  0  0  0
 31 69  1  0  0  0  0
 32 70  1  0  0  0  0
 32 71  1  0  0  0  0
 33 72  1  0  0  0  0
 33 73  1  0  0  0  0
 33 74  1  0  0  0  0
 34 76  1  0  0  0  0
 34 77  1  0  0  0  0
 34 78  1  0  0  0  0
 35 79  1  0  0  0  0
 35 80  1  0  0  0  0
 35 81  1  0  0  0  0
M  END
> <PUBCHEM_COMPOUND_CID>
5315632

> <PUBCHEM_COMPOUND_CANONICALIZED>
1

> <PUBCHEM_CACTVS_COMPLEXITY>
899

> <PUBCHEM_CACTVS_HBOND_ACCEPTOR>
5

> <PUBCHEM_CACTVS_HBOND_DONOR>
5

> <PUBCHEM_CACTVS_ROTATABLE_BOND>
2

> <PUBCHEM_CACTVS_SUBSKEYS>
AAADcfB4OAAAAAAAAAAAAAAAAAAAAAAAAAAwYMGCAAAAAADAAAAAGgAACAAADxSggAICAAAAAgCAAiBCAAAAAAAgAAAACAAAAAgAEAIAAQAAQAAFgAAIAAOAwPAPgAAAAAAAAADAAAYAADAAAAAAAAAAAA==

> <PUBCHEM_IUPAC_OPENEYE_NAME>
(3S,4R,6aR,8aS,14bR)-4,8a-bis(hydroxymethyl)-4,6a,6b,11,11,14b-hexamethyl-1,2,3,4a,5,6,7,8,9,10,12,12a,14,14a-tetradecahydropicene-3,8,9-triol

> <PUBCHEM_IUPAC_CAS_NAME>
(3S,4R,6aR,8aS,14bR)-4,8a-bis(hydroxymethyl)-4,6a,6b,11,11,14b-hexamethyl-1,2,3,4a,5,6,7,8,9,10,12,12a,14,14a-tetradecahydropicene-3,8,9-triol

> <PUBCHEM_IUPAC_NAME_MARKUP>
(3<I>S</I>,4<I>R</I>,6<I>a</I><I>R</I>,8<I>a</I><I>S</I>,14<I>b</I><I>R</I>)-4,8<I>a</I>-bis(hydroxymethyl)-4,6<I>a</I>,6<I>b</I>,11,11,14<I>b</I>-hexamethyl-1,2,3,4<I>a</I>,5,6,7,8,9,10,12,12<I>a</I>,14,14<I>a</I>-tetradecahydropicene-3,8,9-triol

> <PUBCHEM_IUPAC_NAME>
(3S,4R,6aR,8aS,14bR)-4,8a-bis(hydroxymethyl)-4,6a,6b,11,11,14b-hexamethyl-1,2,3,4a,5,6,7,8,9,10,12,12a,14,14a-tetradecahydropicene-3,8,9-triol

> <PUBCHEM_IUPAC_SYSTEMATIC_NAME>
(3S,4R,6aR,8aS,14bR)-4,8a-bis(hydroxymethyl)-4,6a,6b,11,11,14b-hexamethyl-1,2,3,4a,5,6,7,8,9,10,12,12a,14,14a-tetradecahydropicene-3,8,9-triol

> <PUBCHEM_IUPAC_TRADITIONAL_NAME>
(3S,4R,6aR,8aS,14bR)-4,6a,6b,11,11,14b-hexamethyl-4,8a-dimethylol-1,2,3,4a,5,6,7,8,9,10,12,12a,14,14a-tetradecahydropicene-3,8,9-triol

> <PUBCHEM_IUPAC_INCHI>
InChI=1S/C30H50O5/c1-25(2)13-19-18-7-8-21-26(3)11-10-22(33)27(4,16-31)20(26)9-12-28(21,5)29(18,6)15-24(35)30(19,17-32)23(34)14-25/h7,19-24,31-35H,8-17H2,1-6H3/t19?,20?,21?,22-,23?,24?,26-,27-,28+,29?,30+/m0/s1

> <PUBCHEM_IUPAC_INCHIKEY>
SPCSEMLFKVZFJN-YVZDPFMTSA-N

> <PUBCHEM_XLOGP3_AA>
5.1

> <PUBCHEM_EXACT_MASS>
490.36582469

> <PUBCHEM_MOLECULAR_FORMULA>
C30H50O5

> <PUBCHEM_MOLECULAR_WEIGHT>
490.7

> <PUBCHEM_OPENEYE_CAN_SMILES>
CC1(CC2C3=CCC4C5(CCC(C(C5CCC4(C3(CC(C2(C(C1)O)CO)O)C)C)(C)CO)O)C)C

> <PUBCHEM_OPENEYE_ISO_SMILES>
C[C@]12CC[C@@H]([C@@](C1CC[C@@]3(C2CC=C4C3(CC([C@@]5(C4CC(CC5O)(C)C)CO)O)C)C)(C)CO)O

> <PUBCHEM_CACTVS_TPSA>
101

> <PUBCHEM_MONOISOTOPIC_WEIGHT>
490.36582469

> <PUBCHEM_TOTAL_CHARGE>
0

> <PUBCHEM_HEAVY_ATOM_COUNT>
35

> <PUBCHEM_ATOM_DEF_STEREO_COUNT>
5

> <PUBCHEM_ATOM_UDEF_STEREO_COUNT>
6

> <PUBCHEM_BOND_DEF_STEREO_COUNT>
0

> <PUBCHEM_BOND_UDEF_STEREO_COUNT>
0

> <PUBCHEM_ISOTOPIC_ATOM_COUNT>
0

> <PUBCHEM_COMPONENT_COUNT>
1

> <PUBCHEM_CACTVS_TAUTO_COUNT>
-1

> <PUBCHEM_COORDINATE_TYPE>
1
5
255

> <PUBCHEM_BONDANNOTATIONS>
20  1  3
10  15  3
13  26  3
14  31  6
16  33  6
23  2  6
28  3  3
6  21  6
7  18  3
8  24  6
9  25  3

$$$$
