 
  -OEChem-10192104372D

 52 54  0     1  0  0  0  0  0999 V2000
    3.4093    1.6906    0.0000 O   0  0  0  0  0  0  0  0  0  0  0  0
    5.6454    1.6906    0.0000 O   0  0  0  0  0  0  0  0  0  0  0  0
    4.5274    2.3273    0.0000 O   0  0  0  0  0  0  0  0  0  0  0  0
    3.1458   -1.9768    0.0000 O   0  0  0  0  0  0  0  0  0  0  0  0
    5.9089   -1.9768    0.0000 O   0  0  0  0  0  0  0  0  0  0  0  0
    4.0274   -0.2116    0.0000 C   0  0  2  0  0  0  0  0  0  0  0  0
    5.0274   -0.2116    0.0000 C   0  0  2  0  0  0  0  0  0  0  0  0
    3.7183    0.7395    0.0000 C   0  0  1  0  0  0  0  0  0  0  0  0
    5.3364    0.7395    0.0000 C   0  0  1  0  0  0  0  0  0  0  0  0
    4.5274    1.3273    0.0000 C   0  0  0  0  0  0  0  0  0  0  0  0
    3.3424   -0.9963    0.0000 C   0  0  2  0  0  0  0  0  0  0  0  0
    5.7123   -0.9963    0.0000 C   0  0  2  0  0  0  0  0  0  0  0  0
    2.7029    0.9717    0.0000 C   0  0  0  0  0  0  0  0  0  0  0  0
    6.3518    0.9717    0.0000 C   0  0  0  0  0  0  0  0  0  0  0  0
    2.3219   -0.7876    0.0000 C   0  0  0  0  0  0  0  0  0  0  0  0
    6.7328   -0.7876    0.0000 C   0  0  0  0  0  0  0  0  0  0  0  0
    2.0000    0.2031    0.0000 C   0  0  0  0  0  0  0  0  0  0  0  0
    7.0547    0.2031    0.0000 C   0  0  0  0  0  0  0  0  0  0  0  0
    4.0932   -1.6568    0.0000 C   0  0  0  0  0  0  0  0  0  0  0  0
    4.9615   -1.6568    0.0000 C   0  0  0  0  0  0  0  0  0  0  0  0
    3.8966   -2.6373    0.0000 C   0  0  0  0  0  0  0  0  0  0  0  0
    5.1581   -2.6373    0.0000 C   0  0  0  0  0  0  0  0  0  0  0  0
    4.3791   -0.9854    0.0000 H   0  0  0  0  0  0  0  0  0  0  0  0
    4.6757   -0.9854    0.0000 H   0  0  0  0  0  0  0  0  0  0  0  0
    5.0798    1.6087    0.0000 H   0  0  0  0  0  0  0  0  0  0  0  0
    2.9426    1.5436    0.0000 H   0  0  0  0  0  0  0  0  0  0  0  0
    2.1806    1.3057    0.0000 H   0  0  0  0  0  0  0  0  0  0  0  0
    6.8742    1.3057    0.0000 H   0  0  0  0  0  0  0  0  0  0  0  0
    6.1122    1.5436    0.0000 H   0  0  0  0  0  0  0  0  0  0  0  0
    1.7081   -0.8755    0.0000 H   0  0  0  0  0  0  0  0  0  0  0  0
    2.3034   -1.4073    0.0000 H   0  0  0  0  0  0  0  0  0  0  0  0
    6.7513   -1.4073    0.0000 H   0  0  0  0  0  0  0  0  0  0  0  0
    7.3466   -0.8755    0.0000 H   0  0  0  0  0  0  0  0  0  0  0  0
    1.6208    0.6936    0.0000 H   0  0  0  0  0  0  0  0  0  0  0  0
    1.4518   -0.0866    0.0000 H   0  0  0  0  0  0  0  0  0  0  0  0
    7.6029   -0.0866    0.0000 H   0  0  0  0  0  0  0  0  0  0  0  0
    7.4339    0.6936    0.0000 H   0  0  0  0  0  0  0  0  0  0  0  0
    4.6707   -1.8824    0.0000 H   0  0  0  0  0  0  0  0  0  0  0  0
    4.4157   -1.1272    0.0000 H   0  0  0  0  0  0  0  0  0  0  0  0
    4.6390   -1.1272    0.0000 H   0  0  0  0  0  0  0  0  0  0  0  0
    4.3840   -1.8824    0.0000 H   0  0  0  0  0  0  0  0  0  0  0  0
    2.8029    1.8195    0.0000 H   0  0  0  0  0  0  0  0  0  0  0  0
    6.2518    1.8195    0.0000 H   0  0  0  0  0  0  0  0  0  0  0  0
    5.0643    2.6373    0.0000 H   0  0  0  0  0  0  0  0  0  0  0  0
    2.5584   -2.1752    0.0000 H   0  0  0  0  0  0  0  0  0  0  0  0
    6.4963   -2.1752    0.0000 H   0  0  0  0  0  0  0  0  0  0  0  0
    3.2887   -2.5154    0.0000 H   0  0  0  0  0  0  0  0  0  0  0  0
    3.7748   -3.2452    0.0000 H   0  0  0  0  0  0  0  0  0  0  0  0
    4.5045   -2.7592    0.0000 H   0  0  0  0  0  0  0  0  0  0  0  0
    4.5502   -2.7592    0.0000 H   0  0  0  0  0  0  0  0  0  0  0  0
    5.2800   -3.2452    0.0000 H   0  0  0  0  0  0  0  0  0  0  0  0
    5.7660   -2.5154    0.0000 H   0  0  0  0  0  0  0  0  0  0  0  0
  8  1  1  6  0  0  0
  1 42  1  0  0  0  0
  9  2  1  1  0  0  0
  2 43  1  0  0  0  0
  3 10  1  0  0  0  0
  3 44  1  0  0  0  0
 11  4  1  1  0  0  0
  4 45  1  0  0  0  0
 12  5  1  6  0  0  0
  5 46  1  0  0  0  0
  6  7  1  0  0  0  0
  6  8  1  0  0  0  0
  6 11  1  0  0  0  0
  6 23  1  6  0  0  0
  7  9  1  0  0  0  0
  7 12  1  0  0  0  0
  7 24  1  1  0  0  0
  8 10  1  0  0  0  0
  8 13  1  0  0  0  0
  9 10  1  0  0  0  0
  9 14  1  0  0  0  0
 10 25  1  0  0  0  0
 11 15  1  0  0  0  0
 11 19  1  0  0  0  0
 12 16  1  0  0  0  0
 12 20  1  0  0  0  0
 13 17  1  0  0  0  0
 13 26  1  0  0  0  0
 13 27  1  0  0  0  0
 14 18  1  0  0  0  0
 14 28  1  0  0  0  0
 14 29  1  0  0  0  0
 15 17  1  0  0  0  0
 15 30  1  0  0  0  0
 15 31  1  0  0  0  0
 16 18  1  0  0  0  0
 16 32  1  0  0  0  0
 16 33  1  0  0  0  0
 17 34  1  0  0  0  0
 17 35  1  0  0  0  0
 18 36  1  0  0  0  0
 18 37  1  0  0  0  0
 19 21  1  0  0  0  0
 19 38  1  0  0  0  0
 19 39  1  0  0  0  0
 20 22  1  0  0  0  0
 20 40  1  0  0  0  0
 20 41  1  0  0  0  0
 21 47  1  0  0  0  0
 21 48  1  0  0  0  0
 21 49  1  0  0  0  0
 22 50  1  0  0  0  0
 22 51  1  0  0  0  0
 22 52  1  0  0  0  0
M  END
> <PUBCHEM_COMPOUND_CID>
11594809

> <PUBCHEM_COMPOUND_CANONICALIZED>
1

> <PUBCHEM_CACTVS_COMPLEXITY>
416

> <PUBCHEM_CACTVS_HBOND_ACCEPTOR>
5

> <PUBCHEM_CACTVS_HBOND_DONOR>
5

> <PUBCHEM_CACTVS_ROTATABLE_BOND>
2

> <PUBCHEM_CACTVS_SUBSKEYS>
AAADceB4OAAAAAAAAAAAAAAAAAAAAYAAAAAwYAAAAAAAAGAAAAAAGgAACAAADVSggAICAAAAAgAAAAAAAAAAAAAAAAAAAAAAAAABEAIAAAAAQAAFAAABAAHA4PQOgAAAAAAAAAAAAAYQADAAAYQADCAAAA==

> <PUBCHEM_IUPAC_OPENEYE_NAME>
(4S,4aS,4bS,5S,8aS,9aS)-4,5-diethyl-2,3,4a,4b,6,7,8,9-octahydro-1H-fluorene-4,5,8a,9,9a-pentol

> <PUBCHEM_IUPAC_CAS_NAME>
(4S,4aS,4bS,5S,8aS,9aS)-4,5-diethyl-2,3,4a,4b,6,7,8,9-octahydro-1H-fluorene-4,5,8a,9,9a-pentol

> <PUBCHEM_IUPAC_NAME_MARKUP>
(4<I>S</I>,4<I>a</I><I>S</I>,4<I>b</I><I>S</I>,5<I>S</I>,8<I>a</I><I>S</I>,9<I>a</I><I>S</I>)-4,5-diethyl-2,3,4<I>a</I>,4<I>b</I>,6,7,8,9-octahydro-1<I>H</I>-fluorene-4,5,8<I>a</I>,9,9<I>a</I>-pentol

> <PUBCHEM_IUPAC_NAME>
(4S,4aS,4bS,5S,8aS,9aS)-4,5-diethyl-2,3,4a,4b,6,7,8,9-octahydro-1H-fluorene-4,5,8a,9,9a-pentol

> <PUBCHEM_IUPAC_SYSTEMATIC_NAME>
(4S,4aS,4bS,5S,8aS,9aS)-4,5-diethyl-2,3,4a,4b,6,7,8,9-octahydro-1H-fluorene-4,5,8a,9,9a-pentol

> <PUBCHEM_IUPAC_TRADITIONAL_NAME>
(4S,4aS,4bS,5S,8aS,9aS)-4,5-diethyl-2,3,4a,4b,6,7,8,9-octahydro-1H-fluorene-4,5,8a,9,9a-pentol

> <PUBCHEM_IUPAC_INCHI>
InChI=1S/C17H30O5/c1-3-14(19)7-5-9-16(21)11(14)12-15(20,4-2)8-6-10-17(12,22)13(16)18/h11-13,18-22H,3-10H2,1-2H3/t11-,12-,14-,15-,16-,17-/m0/s1

> <PUBCHEM_IUPAC_INCHIKEY>
SQUXMJVEXPONEU-VUGSXULSSA-N

> <PUBCHEM_XLOGP3_AA>
0.2

> <PUBCHEM_EXACT_MASS>
314.20932405

> <PUBCHEM_MOLECULAR_FORMULA>
C17H30O5

> <PUBCHEM_MOLECULAR_WEIGHT>
314.4

> <PUBCHEM_OPENEYE_CAN_SMILES>
CCC1(CCCC2(C1C3C(CCCC3(C2O)O)(CC)O)O)O

> <PUBCHEM_OPENEYE_ISO_SMILES>
CC[C@@]1(CCC[C@@]2([C@H]1[C@H]3[C@@](CCC[C@]3(C2O)O)(CC)O)O)O

> <PUBCHEM_CACTVS_TPSA>
101

> <PUBCHEM_MONOISOTOPIC_WEIGHT>
314.20932405

> <PUBCHEM_TOTAL_CHARGE>
0

> <PUBCHEM_HEAVY_ATOM_COUNT>
22

> <PUBCHEM_ATOM_DEF_STEREO_COUNT>
6

> <PUBCHEM_ATOM_UDEF_STEREO_COUNT>
0

> <PUBCHEM_BOND_DEF_STEREO_COUNT>
0

> <PUBCHEM_BOND_UDEF_STEREO_COUNT>
0

> <PUBCHEM_ISOTOPIC_ATOM_COUNT>
0

> <PUBCHEM_COMPONENT_COUNT>
1

> <PUBCHEM_CACTVS_TAUTO_COUNT>
-1

> <PUBCHEM_COORDINATE_TYPE>
1
5
255

> <PUBCHEM_BONDANNOTATIONS>
8  1  6
9  2  5
11  4  5
12  5  6
6  23  6
7  24  5

$$$$
