 
  -OEChem-10192104142D

 47 47  0     0  0  0  0  0  0999 V2000
   10.3312   -0.1550    0.0000 O   0  0  0  0  0  0  0  0  0  0  0  0
    2.5369   -2.6550    0.0000 O   0  0  0  0  0  0  0  0  0  0  0  0
    3.4030   -4.1550    0.0000 O   0  0  0  0  0  0  0  0  0  0  0  0
   11.1972    4.3450    0.0000 O   0  0  0  0  0  0  0  0  0  0  0  0
   12.0632    2.8450    0.0000 O   0  0  0  0  0  0  0  0  0  0  0  0
    7.7331   -1.6550    0.0000 C   0  0  0  0  0  0  0  0  0  0  0  0
    8.5991   -1.1550    0.0000 C   0  0  0  0  0  0  0  0  0  0  0  0
    7.7331   -2.6550    0.0000 C   0  0  0  0  0  0  0  0  0  0  0  0
    6.8671   -3.1550    0.0000 C   0  0  0  0  0  0  0  0  0  0  0  0
    8.5991   -0.1550    0.0000 C   0  0  0  0  0  0  0  0  0  0  0  0
    6.0010   -2.6550    0.0000 C   0  0  0  0  0  0  0  0  0  0  0  0
    5.1350   -3.1550    0.0000 C   0  0  0  0  0  0  0  0  0  0  0  0
    9.4651    0.3450    0.0000 C   0  0  0  0  0  0  0  0  0  0  0  0
    9.4651    1.3450    0.0000 C   0  0  0  0  0  0  0  0  0  0  0  0
    8.5991   -3.1550    0.0000 C   0  0  0  0  0  0  0  0  0  0  0  0
    6.8671   -4.1550    0.0000 C   0  0  0  0  0  0  0  0  0  0  0  0
   10.3312    1.8450    0.0000 C   0  0  0  0  0  0  0  0  0  0  0  0
    4.2690   -2.6550    0.0000 C   0  0  0  0  0  0  0  0  0  0  0  0
    8.5991   -4.1550    0.0000 C   0  0  0  0  0  0  0  0  0  0  0  0
    7.7331   -4.6550    0.0000 C   0  0  0  0  0  0  0  0  0  0  0  0
   10.3312    2.8450    0.0000 C   0  0  0  0  0  0  0  0  0  0  0  0
    3.4030   -3.1550    0.0000 C   0  0  0  0  0  0  0  0  0  0  0  0
   11.1972    3.3450    0.0000 C   0  0  0  0  0  0  0  0  0  0  0  0
    7.5210   -1.0724    0.0000 H   0  0  0  0  0  0  0  0  0  0  0  0
    7.1225   -1.7627    0.0000 H   0  0  0  0  0  0  0  0  0  0  0  0
    8.8112   -1.7376    0.0000 H   0  0  0  0  0  0  0  0  0  0  0  0
    9.2097   -1.0473    0.0000 H   0  0  0  0  0  0  0  0  0  0  0  0
    8.3871    0.4276    0.0000 H   0  0  0  0  0  0  0  0  0  0  0  0
    7.9885   -0.2627    0.0000 H   0  0  0  0  0  0  0  0  0  0  0  0
    6.3996   -2.1800    0.0000 H   0  0  0  0  0  0  0  0  0  0  0  0
    5.6025   -2.1800    0.0000 H   0  0  0  0  0  0  0  0  0  0  0  0
    4.7365   -3.6300    0.0000 H   0  0  0  0  0  0  0  0  0  0  0  0
    5.5335   -3.6300    0.0000 H   0  0  0  0  0  0  0  0  0  0  0  0
    9.2531    1.9276    0.0000 H   0  0  0  0  0  0  0  0  0  0  0  0
    8.8546    1.2373    0.0000 H   0  0  0  0  0  0  0  0  0  0  0  0
    9.1360   -2.8450    0.0000 H   0  0  0  0  0  0  0  0  0  0  0  0
    6.3301   -4.4650    0.0000 H   0  0  0  0  0  0  0  0  0  0  0  0
   10.5432    1.2624    0.0000 H   0  0  0  0  0  0  0  0  0  0  0  0
   10.9417    1.9527    0.0000 H   0  0  0  0  0  0  0  0  0  0  0  0
    4.6675   -2.1800    0.0000 H   0  0  0  0  0  0  0  0  0  0  0  0
    3.8705   -2.1800    0.0000 H   0  0  0  0  0  0  0  0  0  0  0  0
    9.1360   -4.4650    0.0000 H   0  0  0  0  0  0  0  0  0  0  0  0
    7.7331   -5.2750    0.0000 H   0  0  0  0  0  0  0  0  0  0  0  0
   10.1191    3.4276    0.0000 H   0  0  0  0  0  0  0  0  0  0  0  0
    9.7206    2.7373    0.0000 H   0  0  0  0  0  0  0  0  0  0  0  0
    2.0000   -2.9650    0.0000 H   0  0  0  0  0  0  0  0  0  0  0  0
   11.7341    4.6550    0.0000 H   0  0  0  0  0  0  0  0  0  0  0  0
  1 13  2  0  0  0  0
  2 22  1  0  0  0  0
  2 46  1  0  0  0  0
  3 22  2  0  0  0  0
  4 23  1  0  0  0  0
  4 47  1  0  0  0  0
  5 23  2  0  0  0  0
  6  7  1  0  0  0  0
  6  8  1  0  0  0  0
  6 24  1  0  0  0  0
  6 25  1  0  0  0  0
  7 10  1  0  0  0  0
  7 26  1  0  0  0  0
  7 27  1  0  0  0  0
  8  9  1  0  0  0  0
  8 15  2  0  0  0  0
  9 11  1  0  0  0  0
  9 16  2  0  0  0  0
 10 13  1  0  0  0  0
 10 28  1  0  0  0  0
 10 29  1  0  0  0  0
 11 12  1  0  0  0  0
 11 30  1  0  0  0  0
 11 31  1  0  0  0  0
 12 18  1  0  0  0  0
 12 32  1  0  0  0  0
 12 33  1  0  0  0  0
 13 14  1  0  0  0  0
 14 17  1  0  0  0  0
 14 34  1  0  0  0  0
 14 35  1  0  0  0  0
 15 19  1  0  0  0  0
 15 36  1  0  0  0  0
 16 20  1  0  0  0  0
 16 37  1  0  0  0  0
 17 21  1  0  0  0  0
 17 38  1  0  0  0  0
 17 39  1  0  0  0  0
 18 22  1  0  0  0  0
 18 40  1  0  0  0  0
 18 41  1  0  0  0  0
 19 20  2  0  0  0  0
 19 42  1  0  0  0  0
 20 43  1  0  0  0  0
 21 23  1  0  0  0  0
 21 44  1  0  0  0  0
 21 45  1  0  0  0  0
M  END
> <PUBCHEM_COMPOUND_CID>
20305129

> <PUBCHEM_COMPOUND_CANONICALIZED>
1

> <PUBCHEM_CACTVS_COMPLEXITY>
391

> <PUBCHEM_CACTVS_HBOND_ACCEPTOR>
5

> <PUBCHEM_CACTVS_HBOND_DONOR>
2

> <PUBCHEM_CACTVS_ROTATABLE_BOND>
12

> <PUBCHEM_CACTVS_SUBSKEYS>
AAADceB4OAAAAAAAAAAAAAAAAAAAAAAAAAAwAAAAAAAAAAABAAAAGgAACAAADASAmAAwCIAAAgCIAqDSCAACAAAgAAAIiAEAAIgIIDKAERCAYAAkgAAIiAeIzvCugAAAAAAQAAAAAAAAACAAAAAAAAAAAA==

> <PUBCHEM_IUPAC_OPENEYE_NAME>
8-[2-(3-carboxypropyl)phenyl]-5-oxo-octanoic acid

> <PUBCHEM_IUPAC_CAS_NAME>
8-[2-(3-carboxypropyl)phenyl]-5-oxooctanoic acid

> <PUBCHEM_IUPAC_NAME_MARKUP>
8-[2-(3-carboxypropyl)phenyl]-5-oxooctanoic acid

> <PUBCHEM_IUPAC_NAME>
8-[2-(3-carboxypropyl)phenyl]-5-oxooctanoic acid

> <PUBCHEM_IUPAC_SYSTEMATIC_NAME>
5-oxidanylidene-8-[2-(4-oxidanyl-4-oxidanylidene-butyl)phenyl]octanoic acid

> <PUBCHEM_IUPAC_TRADITIONAL_NAME>
8-[2-(3-carboxypropyl)phenyl]-5-keto-caprylic acid

> <PUBCHEM_IUPAC_INCHI>
InChI=1S/C18H24O5/c19-16(11-5-13-18(22)23)10-3-8-14-6-1-2-7-15(14)9-4-12-17(20)21/h1-2,6-7H,3-5,8-13H2,(H,20,21)(H,22,23)

> <PUBCHEM_IUPAC_INCHIKEY>
KXWNCQDNSZKXLF-UHFFFAOYSA-N

> <PUBCHEM_XLOGP3_AA>
2.1

> <PUBCHEM_EXACT_MASS>
320.16237386

> <PUBCHEM_MOLECULAR_FORMULA>
C18H24O5

> <PUBCHEM_MOLECULAR_WEIGHT>
320.4

> <PUBCHEM_OPENEYE_CAN_SMILES>
C1=CC=C(C(=C1)CCCC(=O)CCCC(=O)O)CCCC(=O)O

> <PUBCHEM_OPENEYE_ISO_SMILES>
C1=CC=C(C(=C1)CCCC(=O)CCCC(=O)O)CCCC(=O)O

> <PUBCHEM_CACTVS_TPSA>
91.7

> <PUBCHEM_MONOISOTOPIC_WEIGHT>
320.16237386

> <PUBCHEM_TOTAL_CHARGE>
0

> <PUBCHEM_HEAVY_ATOM_COUNT>
23

> <PUBCHEM_ATOM_DEF_STEREO_COUNT>
0

> <PUBCHEM_ATOM_UDEF_STEREO_COUNT>
0

> <PUBCHEM_BOND_DEF_STEREO_COUNT>
0

> <PUBCHEM_BOND_UDEF_STEREO_COUNT>
0

> <PUBCHEM_ISOTOPIC_ATOM_COUNT>
0

> <PUBCHEM_COMPONENT_COUNT>
1

> <PUBCHEM_CACTVS_TAUTO_COUNT>
-1

> <PUBCHEM_COORDINATE_TYPE>
1
5
255

> <PUBCHEM_BONDANNOTATIONS>
15  19  8
16  20  8
19  20  8
8  15  8
8  9  8
9  16  8

$$$$
