 
  -OEChem-10192103452D

 80 81  0     1  0  0  0  0  0999 V2000
   12.9292    1.2500    0.0000 O   0  0  0  0  0  0  0  0  0  0  0  0
    8.5991   -1.2500    0.0000 O   0  0  0  0  0  0  0  0  0  0  0  0
   18.9914   -0.2500    0.0000 O   0  0  0  0  0  0  0  0  0  0  0  0
    2.5369    0.2500    0.0000 O   0  0  0  0  0  0  0  0  0  0  0  0
   18.1254   -1.7500    0.0000 O   0  0  0  0  0  0  0  0  0  0  0  0
    3.4030    1.7500    0.0000 O   0  0  0  0  0  0  0  0  0  0  0  0
   12.0632   -0.2500    0.0000 C   0  0  3  0  0  0  0  0  0  0  0  0
    9.4651    0.2500    0.0000 C   0  0  3  0  0  0  0  0  0  0  0  0
   11.1972    0.2500    0.0000 C   0  0  0  0  0  0  0  0  0  0  0  0
   10.3312   -0.2500    0.0000 C   0  0  0  0  0  0  0  0  0  0  0  0
   13.7953   -0.2500    0.0000 C   0  0  3  0  0  0  0  0  0  0  0  0
    7.7331    0.2500    0.0000 C   0  0  3  0  0  0  0  0  0  0  0  0
   12.0632   -1.2500    0.0000 C   0  0  0  0  0  0  0  0  0  0  0  0
    9.4651    1.2500    0.0000 C   0  0  0  0  0  0  0  0  0  0  0  0
   13.7953   -1.2500    0.0000 C   0  0  0  0  0  0  0  0  0  0  0  0
    7.7331    1.2500    0.0000 C   0  0  0  0  0  0  0  0  0  0  0  0
   12.9292    0.2500    0.0000 C   0  0  0  0  0  0  0  0  0  0  0  0
    8.5991   -0.2500    0.0000 C   0  0  0  0  0  0  0  0  0  0  0  0
   12.9292   -1.7500    0.0000 C   0  0  0  0  0  0  0  0  0  0  0  0
    8.5991    1.7500    0.0000 C   0  0  0  0  0  0  0  0  0  0  0  0
   14.6613    0.2500    0.0000 C   0  0  0  0  0  0  0  0  0  0  0  0
    6.8671   -0.2500    0.0000 C   0  0  0  0  0  0  0  0  0  0  0  0
   15.5273   -0.2500    0.0000 C   0  0  0  0  0  0  0  0  0  0  0  0
    6.0010    0.2500    0.0000 C   0  0  0  0  0  0  0  0  0  0  0  0
   16.3933    0.2500    0.0000 C   0  0  0  0  0  0  0  0  0  0  0  0
    5.1350   -0.2500    0.0000 C   0  0  0  0  0  0  0  0  0  0  0  0
   17.2594   -0.2500    0.0000 C   0  0  0  0  0  0  0  0  0  0  0  0
    4.2690    0.2500    0.0000 C   0  0  0  0  0  0  0  0  0  0  0  0
   17.7594    0.6160    0.0000 C   0  0  0  0  0  0  0  0  0  0  0  0
   16.7594   -1.1160    0.0000 C   0  0  0  0  0  0  0  0  0  0  0  0
    3.7690   -0.6160    0.0000 C   0  0  0  0  0  0  0  0  0  0  0  0
    4.7690    1.1160    0.0000 C   0  0  0  0  0  0  0  0  0  0  0  0
   18.1254   -0.7500    0.0000 C   0  0  0  0  0  0  0  0  0  0  0  0
    3.4030    0.7500    0.0000 C   0  0  0  0  0  0  0  0  0  0  0  0
   12.0632    0.3700    0.0000 H   0  0  0  0  0  0  0  0  0  0  0  0
   10.0021    0.5600    0.0000 H   0  0  0  0  0  0  0  0  0  0  0  0
   11.5957    0.7249    0.0000 H   0  0  0  0  0  0  0  0  0  0  0  0
   10.7987    0.7249    0.0000 H   0  0  0  0  0  0  0  0  0  0  0  0
    9.9326   -0.7249    0.0000 H   0  0  0  0  0  0  0  0  0  0  0  0
   10.7297   -0.7249    0.0000 H   0  0  0  0  0  0  0  0  0  0  0  0
   14.3322   -0.5600    0.0000 H   0  0  0  0  0  0  0  0  0  0  0  0
    7.7331   -0.3700    0.0000 H   0  0  0  0  0  0  0  0  0  0  0  0
   11.4526   -1.1423    0.0000 H   0  0  0  0  0  0  0  0  0  0  0  0
   11.8512   -1.8326    0.0000 H   0  0  0  0  0  0  0  0  0  0  0  0
   10.0757    1.1423    0.0000 H   0  0  0  0  0  0  0  0  0  0  0  0
    9.6772    1.8326    0.0000 H   0  0  0  0  0  0  0  0  0  0  0  0
   14.0073   -1.8326    0.0000 H   0  0  0  0  0  0  0  0  0  0  0  0
   14.4058   -1.1423    0.0000 H   0  0  0  0  0  0  0  0  0  0  0  0
    7.5210    1.8326    0.0000 H   0  0  0  0  0  0  0  0  0  0  0  0
    7.1225    1.1423    0.0000 H   0  0  0  0  0  0  0  0  0  0  0  0
   12.5307   -2.2250    0.0000 H   0  0  0  0  0  0  0  0  0  0  0  0
   13.3278   -2.2250    0.0000 H   0  0  0  0  0  0  0  0  0  0  0  0
    8.9976    2.2250    0.0000 H   0  0  0  0  0  0  0  0  0  0  0  0
    8.2006    2.2250    0.0000 H   0  0  0  0  0  0  0  0  0  0  0  0
   15.0598    0.7249    0.0000 H   0  0  0  0  0  0  0  0  0  0  0  0
   14.2628    0.7249    0.0000 H   0  0  0  0  0  0  0  0  0  0  0  0
    6.4685   -0.7249    0.0000 H   0  0  0  0  0  0  0  0  0  0  0  0
    7.2656   -0.7249    0.0000 H   0  0  0  0  0  0  0  0  0  0  0  0
   15.1288   -0.7249    0.0000 H   0  0  0  0  0  0  0  0  0  0  0  0
   15.9258   -0.7249    0.0000 H   0  0  0  0  0  0  0  0  0  0  0  0
    6.3996    0.7249    0.0000 H   0  0  0  0  0  0  0  0  0  0  0  0
    5.6025    0.7249    0.0000 H   0  0  0  0  0  0  0  0  0  0  0  0
   16.7919    0.7249    0.0000 H   0  0  0  0  0  0  0  0  0  0  0  0
   15.9948    0.7249    0.0000 H   0  0  0  0  0  0  0  0  0  0  0  0
    4.7365   -0.7249    0.0000 H   0  0  0  0  0  0  0  0  0  0  0  0
    5.5335   -0.7249    0.0000 H   0  0  0  0  0  0  0  0  0  0  0  0
   18.2963    0.3060    0.0000 H   0  0  0  0  0  0  0  0  0  0  0  0
   18.0694    1.1530    0.0000 H   0  0  0  0  0  0  0  0  0  0  0  0
   17.2224    0.9260    0.0000 H   0  0  0  0  0  0  0  0  0  0  0  0
   16.2224   -0.8060    0.0000 H   0  0  0  0  0  0  0  0  0  0  0  0
   16.4494   -1.6530    0.0000 H   0  0  0  0  0  0  0  0  0  0  0  0
   17.2963   -1.4260    0.0000 H   0  0  0  0  0  0  0  0  0  0  0  0
    3.2320   -0.3060    0.0000 H   0  0  0  0  0  0  0  0  0  0  0  0
    3.4590   -1.1530    0.0000 H   0  0  0  0  0  0  0  0  0  0  0  0
    4.3059   -0.9260    0.0000 H   0  0  0  0  0  0  0  0  0  0  0  0
    5.3059    0.8060    0.0000 H   0  0  0  0  0  0  0  0  0  0  0  0
    5.0790    1.6530    0.0000 H   0  0  0  0  0  0  0  0  0  0  0  0
    4.2320    1.4260    0.0000 H   0  0  0  0  0  0  0  0  0  0  0  0
   19.5284   -0.5600    0.0000 H   0  0  0  0  0  0  0  0  0  0  0  0
    2.0000    0.5600    0.0000 H   0  0  0  0  0  0  0  0  0  0  0  0
  1 17  2  0  0  0  0
  2 18  2  0  0  0  0
  3 33  1  0  0  0  0
  3 79  1  0  0  0  0
  4 34  1  0  0  0  0
  4 80  1  0  0  0  0
  5 33  2  0  0  0  0
  6 34  2  0  0  0  0
  7  9  1  0  0  0  0
  7 13  1  0  0  0  0
  7 17  1  0  0  0  0
  7 35  1  0  0  0  0
  8 10  1  0  0  0  0
  8 14  1  0  0  0  0
  8 18  1  0  0  0  0
  8 36  1  0  0  0  0
  9 10  1  0  0  0  0
  9 37  1  0  0  0  0
  9 38  1  0  0  0  0
 10 39  1  0  0  0  0
 10 40  1  0  0  0  0
 11 15  1  0  0  0  0
 11 17  1  0  0  0  0
 11 21  1  0  0  0  0
 11 41  1  0  0  0  0
 12 16  1  0  0  0  0
 12 18  1  0  0  0  0
 12 22  1  0  0  0  0
 12 42  1  0  0  0  0
 13 19  1  0  0  0  0
 13 43  1  0  0  0  0
 13 44  1  0  0  0  0
 14 20  1  0  0  0  0
 14 45  1  0  0  0  0
 14 46  1  0  0  0  0
 15 19  1  0  0  0  0
 15 47  1  0  0  0  0
 15 48  1  0  0  0  0
 16 20  1  0  0  0  0
 16 49  1  0  0  0  0
 16 50  1  0  0  0  0
 19 51  1  0  0  0  0
 19 52  1  0  0  0  0
 20 53  1  0  0  0  0
 20 54  1  0  0  0  0
 21 23  1  0  0  0  0
 21 55  1  0  0  0  0
 21 56  1  0  0  0  0
 22 24  1  0  0  0  0
 22 57  1  0  0  0  0
 22 58  1  0  0  0  0
 23 25  1  0  0  0  0
 23 59  1  0  0  0  0
 23 60  1  0  0  0  0
 24 26  1  0  0  0  0
 24 61  1  0  0  0  0
 24 62  1  0  0  0  0
 25 27  1  0  0  0  0
 25 63  1  0  0  0  0
 25 64  1  0  0  0  0
 26 28  1  0  0  0  0
 26 65  1  0  0  0  0
 26 66  1  0  0  0  0
 27 29  1  0  0  0  0
 27 30  1  0  0  0  0
 27 33  1  0  0  0  0
 28 31  1  0  0  0  0
 28 32  1  0  0  0  0
 28 34  1  0  0  0  0
 29 67  1  0  0  0  0
 29 68  1  0  0  0  0
 29 69  1  0  0  0  0
 30 70  1  0  0  0  0
 30 71  1  0  0  0  0
 30 72  1  0  0  0  0
 31 73  1  0  0  0  0
 31 74  1  0  0  0  0
 31 75  1  0  0  0  0
 32 76  1  0  0  0  0
 32 77  1  0  0  0  0
 32 78  1  0  0  0  0
M  END
> <PUBCHEM_COMPOUND_CID>
23431465

> <PUBCHEM_COMPOUND_CANONICALIZED>
1

> <PUBCHEM_CACTVS_COMPLEXITY>
675

> <PUBCHEM_CACTVS_HBOND_ACCEPTOR>
6

> <PUBCHEM_CACTVS_HBOND_DONOR>
2

> <PUBCHEM_CACTVS_ROTATABLE_BOND>
13

> <PUBCHEM_CACTVS_SUBSKEYS>
AAADcfB4OAAAAAAAAAAAAAAAAAAAAAAAAAAwYAAAAAAAAAAAAAAAGgAACAAADwSAgAACCAAAAgAIAICQCAAAAAAAAAAAAAEAAAAAABIAAAAAQAAEAAAAAAGIyOCPAAAAAAAAAAAAAAQAAAAAAAAAAAAAAA==

> <PUBCHEM_IUPAC_OPENEYE_NAME>
5-[3-[2-[3-(4-carboxy-4-methyl-pentyl)-2-oxo-cyclohexyl]ethyl]-2-oxo-cyclohexyl]-2,2-dimethyl-pentanoic acid

> <PUBCHEM_IUPAC_CAS_NAME>
5-[3-[2-[3-(4-carboxy-4-methylpentyl)-2-oxocyclohexyl]ethyl]-2-oxocyclohexyl]-2,2-dimethylpentanoic acid

> <PUBCHEM_IUPAC_NAME_MARKUP>
5-[3-[2-[3-(4-carboxy-4-methylpentyl)-2-oxocyclohexyl]ethyl]-2-oxocyclohexyl]-2,2-dimethylpentanoic acid

> <PUBCHEM_IUPAC_NAME>
5-[3-[2-[3-(4-carboxy-4-methylpentyl)-2-oxocyclohexyl]ethyl]-2-oxocyclohexyl]-2,2-dimethylpentanoic acid

> <PUBCHEM_IUPAC_SYSTEMATIC_NAME>
5-[3-[2-[3-(4,4-dimethyl-5-oxidanyl-5-oxidanylidene-pentyl)-2-oxidanylidene-cyclohexyl]ethyl]-2-oxidanylidene-cyclohexyl]-2,2-dimethyl-pentanoic acid

> <PUBCHEM_IUPAC_TRADITIONAL_NAME>
5-[3-[2-[3-(4-carboxy-4-methyl-pentyl)-2-keto-cyclohexyl]ethyl]-2-keto-cyclohexyl]-2,2-dimethyl-valeric acid

> <PUBCHEM_IUPAC_INCHI>
InChI=1S/C28H46O6/c1-27(2,25(31)32)17-7-13-19-9-5-11-21(23(19)29)15-16-22-12-6-10-20(24(22)30)14-8-18-28(3,4)26(33)34/h19-22H,5-18H2,1-4H3,(H,31,32)(H,33,34)

> <PUBCHEM_IUPAC_INCHIKEY>
CLADHMSGURRXMM-UHFFFAOYSA-N

> <PUBCHEM_XLOGP3_AA>
5.9

> <PUBCHEM_EXACT_MASS>
478.32943918

> <PUBCHEM_MOLECULAR_FORMULA>
C28H46O6

> <PUBCHEM_MOLECULAR_WEIGHT>
478.7

> <PUBCHEM_OPENEYE_CAN_SMILES>
CC(C)(CCCC1CCCC(C1=O)CCC2CCCC(C2=O)CCCC(C)(C)C(=O)O)C(=O)O

> <PUBCHEM_OPENEYE_ISO_SMILES>
CC(C)(CCCC1CCCC(C1=O)CCC2CCCC(C2=O)CCCC(C)(C)C(=O)O)C(=O)O

> <PUBCHEM_CACTVS_TPSA>
109

> <PUBCHEM_MONOISOTOPIC_WEIGHT>
478.32943918

> <PUBCHEM_TOTAL_CHARGE>
0

> <PUBCHEM_HEAVY_ATOM_COUNT>
34

> <PUBCHEM_ATOM_DEF_STEREO_COUNT>
0

> <PUBCHEM_ATOM_UDEF_STEREO_COUNT>
4

> <PUBCHEM_BOND_DEF_STEREO_COUNT>
0

> <PUBCHEM_BOND_UDEF_STEREO_COUNT>
0

> <PUBCHEM_ISOTOPIC_ATOM_COUNT>
0

> <PUBCHEM_COMPONENT_COUNT>
1

> <PUBCHEM_CACTVS_TAUTO_COUNT>
-1

> <PUBCHEM_COORDINATE_TYPE>
1
5
255

> <PUBCHEM_BONDANNOTATIONS>
11  21  3
12  22  3
7  9  3
8  10  3

$$$$
