 
  -OEChem-10192104382D

 33 33  0     1  0  0  0  0  0999 V2000
    7.0028   -3.1739    0.0000 O   0  0  0  0  0  0  0  0  0  0  0  0
    2.4608   -1.4650    0.0000 O   0  0  0  0  0  0  0  0  0  0  0  0
    3.6197   -2.7521    0.0000 O   0  0  0  0  0  0  0  0  0  0  0  0
    5.9150   -0.8261    0.0000 C   0  0  2  0  0  0  0  0  0  0  0  0
    5.1060   -1.4139    0.0000 C   0  0  1  0  0  0  0  0  0  0  0  0
    6.7240   -1.4139    0.0000 C   0  0  0  0  0  0  0  0  0  0  0  0
    5.4150   -2.3649    0.0000 C   0  0  0  0  0  0  0  0  0  0  0  0
    5.9150    0.1739    0.0000 C   0  0  0  0  0  0  0  0  0  0  0  0
    6.4150   -2.3649    0.0000 C   0  0  0  0  0  0  0  0  0  0  0  0
    4.1550   -1.1048    0.0000 C   0  0  0  0  0  0  0  0  0  0  0  0
    6.7810    0.6739    0.0000 C   0  0  0  0  0  0  0  0  0  0  0  0
    3.4118   -1.7740    0.0000 C   0  0  0  0  0  0  0  0  0  0  0  0
    6.7810    1.6739    0.0000 C   0  0  0  0  0  0  0  0  0  0  0  0
    5.9150    2.1739    0.0000 C   0  0  0  0  0  0  0  0  0  0  0  0
    5.9150    3.1739    0.0000 C   0  0  0  0  0  0  0  0  0  0  0  0
    6.4675   -0.5446    0.0000 H   0  0  0  0  0  0  0  0  0  0  0  0
    4.6676   -1.8523    0.0000 H   0  0  0  0  0  0  0  0  0  0  0  0
    7.2904   -1.6660    0.0000 H   0  0  0  0  0  0  0  0  0  0  0  0
    7.0340   -0.8769    0.0000 H   0  0  0  0  0  0  0  0  0  0  0  0
    4.8086   -2.4938    0.0000 H   0  0  0  0  0  0  0  0  0  0  0  0
    5.4798   -2.9815    0.0000 H   0  0  0  0  0  0  0  0  0  0  0  0
    5.7030    0.7565    0.0000 H   0  0  0  0  0  0  0  0  0  0  0  0
    5.3044    0.0663    0.0000 H   0  0  0  0  0  0  0  0  0  0  0  0
    4.4460   -0.5574    0.0000 H   0  0  0  0  0  0  0  0  0  0  0  0
    3.6664   -0.7231    0.0000 H   0  0  0  0  0  0  0  0  0  0  0  0
    7.3180    0.3639    0.0000 H   0  0  0  0  0  0  0  0  0  0  0  0
    7.3180    1.9839    0.0000 H   0  0  0  0  0  0  0  0  0  0  0  0
    5.3044    2.2816    0.0000 H   0  0  0  0  0  0  0  0  0  0  0  0
    5.7030    1.5913    0.0000 H   0  0  0  0  0  0  0  0  0  0  0  0
    2.0000   -1.8798    0.0000 H   0  0  0  0  0  0  0  0  0  0  0  0
    6.5350    3.1739    0.0000 H   0  0  0  0  0  0  0  0  0  0  0  0
    5.9150    3.7939    0.0000 H   0  0  0  0  0  0  0  0  0  0  0  0
    5.2950    3.1739    0.0000 H   0  0  0  0  0  0  0  0  0  0  0  0
  1  9  2  0  0  0  0
  2 12  1  0  0  0  0
  2 30  1  0  0  0  0
  3 12  2  0  0  0  0
  4  5  1  0  0  0  0
  4  6  1  0  0  0  0
  4  8  1  1  0  0  0
  4 16  1  0  0  0  0
  5  7  1  0  0  0  0
  5 10  1  1  0  0  0
  5 17  1  0  0  0  0
  6  9  1  0  0  0  0
  6 18  1  0  0  0  0
  6 19  1  0  0  0  0
  7  9  1  0  0  0  0
  7 20  1  0  0  0  0
  7 21  1  0  0  0  0
  8 11  1  0  0  0  0
  8 22  1  0  0  0  0
  8 23  1  0  0  0  0
 10 12  1  0  0  0  0
 10 24  1  0  0  0  0
 10 25  1  0  0  0  0
 11 13  2  0  0  0  0
 11 26  1  0  0  0  0
 13 14  1  0  0  0  0
 13 27  1  0  0  0  0
 14 15  1  0  0  0  0
 14 28  1  0  0  0  0
 14 29  1  0  0  0  0
 15 31  1  0  0  0  0
 15 32  1  0  0  0  0
 15 33  1  0  0  0  0
M  END
> <PUBCHEM_COMPOUND_CID>
102161310

> <PUBCHEM_COMPOUND_CANONICALIZED>
1

> <PUBCHEM_CACTVS_COMPLEXITY>
268

> <PUBCHEM_CACTVS_HBOND_ACCEPTOR>
3

> <PUBCHEM_CACTVS_HBOND_DONOR>
1

> <PUBCHEM_CACTVS_ROTATABLE_BOND>
5

> <PUBCHEM_CACTVS_SUBSKEYS>
AAADceBwMAAAAAAAAAAAAAAAAAAAAYAAAAAAAAAAAAAAAAAAAAAAGgAACAAADQSAgAACCAAAAgCIAKDSCAAAAAAgAAAICAEAAAgAABIAAQAAQAAEgAAIAAOIzqCugAAAAAAAAAAAAAAAAAAAAAAACAAAAA==

> <PUBCHEM_IUPAC_OPENEYE_NAME>
2-[(1S,2S)-4-oxo-2-[(Z)-pent-2-enyl]cyclopentyl]acetic acid

> <PUBCHEM_IUPAC_CAS_NAME>
2-[(1S,2S)-4-oxo-2-[(Z)-pent-2-enyl]cyclopentyl]acetic acid

> <PUBCHEM_IUPAC_NAME_MARKUP>
2-[(1<I>S</I>,2<I>S</I>)-4-oxo-2-[(<I>Z</I>)-pent-2-enyl]cyclopentyl]acetic acid

> <PUBCHEM_IUPAC_NAME>
2-[(1S,2S)-4-oxo-2-[(Z)-pent-2-enyl]cyclopentyl]acetic acid

> <PUBCHEM_IUPAC_SYSTEMATIC_NAME>
2-[(1S,2S)-4-oxidanylidene-2-[(Z)-pent-2-enyl]cyclopentyl]ethanoic acid

> <PUBCHEM_IUPAC_TRADITIONAL_NAME>
2-[(1S,2S)-4-keto-2-[(Z)-pent-2-enyl]cyclopentyl]acetic acid

> <PUBCHEM_IUPAC_INCHI>
InChI=1S/C12H18O3/c1-2-3-4-5-9-6-11(13)7-10(9)8-12(14)15/h3-4,9-10H,2,5-8H2,1H3,(H,14,15)/b4-3-/t9-,10-/m0/s1

> <PUBCHEM_IUPAC_INCHIKEY>
AUAYBDNKDWXWEX-CMIOBCHKSA-N

> <PUBCHEM_XLOGP3_AA>
1.5

> <PUBCHEM_EXACT_MASS>
210.125594432

> <PUBCHEM_MOLECULAR_FORMULA>
C12H18O3

> <PUBCHEM_MOLECULAR_WEIGHT>
210.27

> <PUBCHEM_OPENEYE_CAN_SMILES>
CCC=CCC1CC(=O)CC1CC(=O)O

> <PUBCHEM_OPENEYE_ISO_SMILES>
CC/C=C\C[C@H]1CC(=O)C[C@H]1CC(=O)O

> <PUBCHEM_CACTVS_TPSA>
54.4

> <PUBCHEM_MONOISOTOPIC_WEIGHT>
210.125594432

> <PUBCHEM_TOTAL_CHARGE>
0

> <PUBCHEM_HEAVY_ATOM_COUNT>
15

> <PUBCHEM_ATOM_DEF_STEREO_COUNT>
2

> <PUBCHEM_ATOM_UDEF_STEREO_COUNT>
0

> <PUBCHEM_BOND_DEF_STEREO_COUNT>
1

> <PUBCHEM_BOND_UDEF_STEREO_COUNT>
0

> <PUBCHEM_ISOTOPIC_ATOM_COUNT>
0

> <PUBCHEM_COMPONENT_COUNT>
1

> <PUBCHEM_CACTVS_TAUTO_COUNT>
-1

> <PUBCHEM_COORDINATE_TYPE>
1
5
255

> <PUBCHEM_BONDANNOTATIONS>
4  8  5
5  10  5

$$$$
