 
  -OEChem-10192104062D

 32 32  0     1  0  0  0  0  0999 V2000
    5.4641   -2.2500    0.0000 O   0  0  0  0  0  0  0  0  0  0  0  0
    3.7320    0.7500    0.0000 O   0  0  0  0  0  0  0  0  0  0  0  0
    7.1962    0.7500    0.0000 O   0  0  0  0  0  0  0  0  0  0  0  0
    3.7320   -2.2500    0.0000 O   0  0  0  0  0  0  0  0  0  0  0  0
    7.1962   -2.2500    0.0000 O   0  0  0  0  0  0  0  0  0  0  0  0
    2.0000    0.7500    0.0000 O   0  0  0  0  0  0  0  0  0  0  0  0
    8.9282    0.7500    0.0000 O   0  0  0  0  0  0  0  0  0  0  0  0
    5.4641   -0.2500    0.0000 C   0  0  0  0  0  0  0  0  0  0  0  0
    4.5981   -0.7500    0.0000 C   0  0  2  0  0  0  0  0  0  0  0  0
    6.3301   -0.7500    0.0000 C   0  0  1  0  0  0  0  0  0  0  0  0
    3.7320   -0.2500    0.0000 C   0  0  0  0  0  0  0  0  0  0  0  0
    7.1962   -0.2500    0.0000 C   0  0  0  0  0  0  0  0  0  0  0  0
    4.5981   -1.7500    0.0000 C   0  0  0  0  0  0  0  0  0  0  0  0
    6.3301   -1.7500    0.0000 C   0  0  0  0  0  0  0  0  0  0  0  0
    2.8660    1.2500    0.0000 C   0  0  0  0  0  0  0  0  0  0  0  0
    8.0622    1.2500    0.0000 C   0  0  0  0  0  0  0  0  0  0  0  0
    2.8660    2.2500    0.0000 C   0  0  0  0  0  0  0  0  0  0  0  0
    8.0622    2.2500    0.0000 C   0  0  0  0  0  0  0  0  0  0  0  0
    5.8626    0.2249    0.0000 H   0  0  0  0  0  0  0  0  0  0  0  0
    5.0656    0.2249    0.0000 H   0  0  0  0  0  0  0  0  0  0  0  0
    4.5981   -0.1300    0.0000 H   0  0  0  0  0  0  0  0  0  0  0  0
    6.8671   -1.0600    0.0000 H   0  0  0  0  0  0  0  0  0  0  0  0
    3.1215   -0.1423    0.0000 H   0  0  0  0  0  0  0  0  0  0  0  0
    3.5200   -0.8326    0.0000 H   0  0  0  0  0  0  0  0  0  0  0  0
    7.4082   -0.8326    0.0000 H   0  0  0  0  0  0  0  0  0  0  0  0
    7.8067   -0.1423    0.0000 H   0  0  0  0  0  0  0  0  0  0  0  0
    3.4860    2.2500    0.0000 H   0  0  0  0  0  0  0  0  0  0  0  0
    2.8660    2.8700    0.0000 H   0  0  0  0  0  0  0  0  0  0  0  0
    2.2460    2.2500    0.0000 H   0  0  0  0  0  0  0  0  0  0  0  0
    8.6822    2.2500    0.0000 H   0  0  0  0  0  0  0  0  0  0  0  0
    8.0622    2.8700    0.0000 H   0  0  0  0  0  0  0  0  0  0  0  0
    7.4422    2.2500    0.0000 H   0  0  0  0  0  0  0  0  0  0  0  0
  1 13  1  0  0  0  0
  1 14  1  0  0  0  0
  2 11  1  0  0  0  0
  2 15  1  0  0  0  0
  3 12  1  0  0  0  0
  3 16  1  0  0  0  0
  4 13  2  0  0  0  0
  5 14  2  0  0  0  0
  6 15  2  0  0  0  0
  7 16  2  0  0  0  0
  8  9  1  0  0  0  0
  8 10  1  0  0  0  0
  8 19  1  0  0  0  0
  8 20  1  0  0  0  0
  9 11  1  1  0  0  0
  9 13  1  0  0  0  0
  9 21  1  0  0  0  0
 10 12  1  1  0  0  0
 10 14  1  0  0  0  0
 10 22  1  0  0  0  0
 11 23  1  0  0  0  0
 11 24  1  0  0  0  0
 12 25  1  0  0  0  0
 12 26  1  0  0  0  0
 15 17  1  0  0  0  0
 16 18  1  0  0  0  0
 17 27  1  0  0  0  0
 17 28  1  0  0  0  0
 17 29  1  0  0  0  0
 18 30  1  0  0  0  0
 18 31  1  0  0  0  0
 18 32  1  0  0  0  0
M  END
> <PUBCHEM_COMPOUND_CID>
102323954

> <PUBCHEM_COMPOUND_CANONICALIZED>
1

> <PUBCHEM_CACTVS_COMPLEXITY>
340

> <PUBCHEM_CACTVS_HBOND_ACCEPTOR>
7

> <PUBCHEM_CACTVS_HBOND_DONOR>
0

> <PUBCHEM_CACTVS_ROTATABLE_BOND>
6

> <PUBCHEM_CACTVS_SUBSKEYS>
AAADccBwOAAAAAAAAAAAAAAAAAAAAAAAAAAkAAAAAAAAAAAAAAAAGgAAAAAADQCggAICCAAABAAIAACQCAAAAAAAAAAAAAEAAAAAABYAAAACAAAFIAAAAACIJggMAAAAAAAAAAAAAAAAAAAAAAAAAAAAAA==

> <PUBCHEM_IUPAC_OPENEYE_NAME>
[(3R,5S)-5-(acetoxymethyl)-2,6-dioxo-tetrahydropyran-3-yl]methyl acetate

> <PUBCHEM_IUPAC_CAS_NAME>
acetic acid [(3R,5S)-5-(acetyloxymethyl)-2,6-dioxo-3-oxanyl]methyl ester

> <PUBCHEM_IUPAC_NAME_MARKUP>
[(3<I>R</I>,5<I>S</I>)-5-(acetyloxymethyl)-2,6-dioxooxan-3-yl]methyl acetate

> <PUBCHEM_IUPAC_NAME>
[(3R,5S)-5-(acetyloxymethyl)-2,6-dioxooxan-3-yl]methyl acetate

> <PUBCHEM_IUPAC_SYSTEMATIC_NAME>
[(3R,5S)-5-(acetyloxymethyl)-2,6-bis(oxidanylidene)oxan-3-yl]methyl ethanoate

> <PUBCHEM_IUPAC_TRADITIONAL_NAME>
acetic acid [(3R,5S)-5-(acetoxymethyl)-2,6-diketo-tetrahydropyran-3-yl]methyl ester

> <PUBCHEM_IUPAC_INCHI>
InChI=1S/C11H14O7/c1-6(12)16-4-8-3-9(5-17-7(2)13)11(15)18-10(8)14/h8-9H,3-5H2,1-2H3/t8-,9+

> <PUBCHEM_IUPAC_INCHIKEY>
WUFOAVQGOJBZRG-DTORHVGOSA-N

> <PUBCHEM_XLOGP3_AA>
-0.3

> <PUBCHEM_EXACT_MASS>
258.07395278

> <PUBCHEM_MOLECULAR_FORMULA>
C11H14O7

> <PUBCHEM_MOLECULAR_WEIGHT>
258.22

> <PUBCHEM_OPENEYE_CAN_SMILES>
CC(=O)OCC1CC(C(=O)OC1=O)COC(=O)C

> <PUBCHEM_OPENEYE_ISO_SMILES>
CC(=O)OC[C@H]1C[C@H](C(=O)OC1=O)COC(=O)C

> <PUBCHEM_CACTVS_TPSA>
96

> <PUBCHEM_MONOISOTOPIC_WEIGHT>
258.07395278

> <PUBCHEM_TOTAL_CHARGE>
0

> <PUBCHEM_HEAVY_ATOM_COUNT>
18

> <PUBCHEM_ATOM_DEF_STEREO_COUNT>
2

> <PUBCHEM_ATOM_UDEF_STEREO_COUNT>
0

> <PUBCHEM_BOND_DEF_STEREO_COUNT>
0

> <PUBCHEM_BOND_UDEF_STEREO_COUNT>
0

> <PUBCHEM_ISOTOPIC_ATOM_COUNT>
0

> <PUBCHEM_COMPONENT_COUNT>
1

> <PUBCHEM_CACTVS_TAUTO_COUNT>
-1

> <PUBCHEM_COORDINATE_TYPE>
1
5
255

> <PUBCHEM_BONDANNOTATIONS>
10  12  5
9  11  5

$$$$
