 
  -OEChem-10192103402D

 39 38  0     1  0  0  0  0  0999 V2000
    7.1962   -1.0950    0.0000 O   0  0  0  0  0  0  0  0  0  0  0  0
    8.9282   -1.0950    0.0000 O   0  0  0  0  0  0  0  0  0  0  0  0
    3.7320   -0.0950    0.0000 O   0  0  0  0  0  0  0  0  0  0  0  0
   12.3923   -0.0950    0.0000 O   0  0  0  0  0  0  0  0  0  0  0  0
    2.8660    1.4050    0.0000 O   0  0  0  0  0  0  0  0  0  0  0  0
   13.2583    1.4050    0.0000 O   0  0  0  0  0  0  0  0  0  0  0  0
    8.0622    0.4050    0.0000 C   0  0  0  0  0  0  0  0  0  0  0  0
    7.1962   -0.0950    0.0000 C   0  0  2  0  0  0  0  0  0  0  0  0
    8.9282   -0.0950    0.0000 C   0  0  2  0  0  0  0  0  0  0  0  0
    6.3301    0.4050    0.0000 C   0  0  0  0  0  0  0  0  0  0  0  0
    9.7942    0.4050    0.0000 C   0  0  0  0  0  0  0  0  0  0  0  0
    5.4641   -0.0950    0.0000 C   0  0  0  0  0  0  0  0  0  0  0  0
   10.6603   -0.0950    0.0000 C   0  0  0  0  0  0  0  0  0  0  0  0
    4.5981    0.4050    0.0000 C   0  0  0  0  0  0  0  0  0  0  0  0
   11.5263    0.4050    0.0000 C   0  0  0  0  0  0  0  0  0  0  0  0
    2.8660    0.4050    0.0000 C   0  0  0  0  0  0  0  0  0  0  0  0
   13.2583    0.4050    0.0000 C   0  0  0  0  0  0  0  0  0  0  0  0
    2.0000   -0.0950    0.0000 C   0  0  0  0  0  0  0  0  0  0  0  0
   14.1244   -0.0950    0.0000 C   0  0  0  0  0  0  0  0  0  0  0  0
    8.4607    0.8799    0.0000 H   0  0  0  0  0  0  0  0  0  0  0  0
    7.6636    0.8799    0.0000 H   0  0  0  0  0  0  0  0  0  0  0  0
    6.6592   -0.4050    0.0000 H   0  0  0  0  0  0  0  0  0  0  0  0
    9.4651   -0.4050    0.0000 H   0  0  0  0  0  0  0  0  0  0  0  0
    6.3301    1.0250    0.0000 H   0  0  0  0  0  0  0  0  0  0  0  0
    9.7942    1.0250    0.0000 H   0  0  0  0  0  0  0  0  0  0  0  0
    5.4641   -0.7150    0.0000 H   0  0  0  0  0  0  0  0  0  0  0  0
   10.6603   -0.7150    0.0000 H   0  0  0  0  0  0  0  0  0  0  0  0
    6.6592   -1.4050    0.0000 H   0  0  0  0  0  0  0  0  0  0  0  0
    9.4651   -1.4050    0.0000 H   0  0  0  0  0  0  0  0  0  0  0  0
    4.9966    0.8799    0.0000 H   0  0  0  0  0  0  0  0  0  0  0  0
    4.1996    0.8799    0.0000 H   0  0  0  0  0  0  0  0  0  0  0  0
   11.9248    0.8799    0.0000 H   0  0  0  0  0  0  0  0  0  0  0  0
   11.1278    0.8799    0.0000 H   0  0  0  0  0  0  0  0  0  0  0  0
    1.6900    0.4419    0.0000 H   0  0  0  0  0  0  0  0  0  0  0  0
    1.4631   -0.4050    0.0000 H   0  0  0  0  0  0  0  0  0  0  0  0
    2.3100   -0.6319    0.0000 H   0  0  0  0  0  0  0  0  0  0  0  0
   13.8144   -0.6319    0.0000 H   0  0  0  0  0  0  0  0  0  0  0  0
   14.6613   -0.4050    0.0000 H   0  0  0  0  0  0  0  0  0  0  0  0
   14.4344    0.4419    0.0000 H   0  0  0  0  0  0  0  0  0  0  0  0
  8  1  1  1  0  0  0
  1 28  1  0  0  0  0
  9  2  1  6  0  0  0
  2 29  1  0  0  0  0
  3 14  1  0  0  0  0
  3 16  1  0  0  0  0
  4 15  1  0  0  0  0
  4 17  1  0  0  0  0
  5 16  2  0  0  0  0
  6 17  2  0  0  0  0
  7  8  1  0  0  0  0
  7  9  1  0  0  0  0
  7 20  1  0  0  0  0
  7 21  1  0  0  0  0
  8 10  1  0  0  0  0
  8 22  1  0  0  0  0
  9 11  1  0  0  0  0
  9 23  1  0  0  0  0
 10 12  2  0  0  0  0
 10 24  1  0  0  0  0
 11 13  2  0  0  0  0
 11 25  1  0  0  0  0
 12 14  1  0  0  0  0
 12 26  1  0  0  0  0
 13 15  1  0  0  0  0
 13 27  1  0  0  0  0
 14 30  1  0  0  0  0
 14 31  1  0  0  0  0
 15 32  1  0  0  0  0
 15 33  1  0  0  0  0
 16 18  1  0  0  0  0
 17 19  1  0  0  0  0
 18 34  1  0  0  0  0
 18 35  1  0  0  0  0
 18 36  1  0  0  0  0
 19 37  1  0  0  0  0
 19 38  1  0  0  0  0
 19 39  1  0  0  0  0
M  END
> <PUBCHEM_COMPOUND_CID>
11231091

> <PUBCHEM_COMPOUND_CANONICALIZED>
1

> <PUBCHEM_CACTVS_COMPLEXITY>
302

> <PUBCHEM_CACTVS_HBOND_ACCEPTOR>
6

> <PUBCHEM_CACTVS_HBOND_DONOR>
2

> <PUBCHEM_CACTVS_ROTATABLE_BOND>
10

> <PUBCHEM_CACTVS_SUBSKEYS>
AAADceBwOAAAAAAAAAAAAAAAAAAAAAAAAAAAAAAAAAAAAAAAAAAAGgAACAAACBSggAICCAAABgCIACDSCAAAAAAgAAAICAAAAAgAFAIAIQACUAAFgAAIMAIAAAAAAAAAAAAAAAAAAAAAAAAAAAAAAAAAAA==

> <PUBCHEM_IUPAC_OPENEYE_NAME>
[(2E,4R,6R,7E)-9-acetoxy-4,6-dihydroxy-nona-2,7-dienyl] acetate

> <PUBCHEM_IUPAC_CAS_NAME>
acetic acid [(2E,4R,6R,7E)-9-acetyloxy-4,6-dihydroxynona-2,7-dienyl] ester

> <PUBCHEM_IUPAC_NAME_MARKUP>
[(2<I>E</I>,4<I>R</I>,6<I>R</I>,7<I>E</I>)-9-acetyloxy-4,6-dihydroxynona-2,7-dienyl] acetate

> <PUBCHEM_IUPAC_NAME>
[(2E,4R,6R,7E)-9-acetyloxy-4,6-dihydroxynona-2,7-dienyl] acetate

> <PUBCHEM_IUPAC_SYSTEMATIC_NAME>
[(2E,4R,6R,7E)-9-acetyloxy-4,6-bis(oxidanyl)nona-2,7-dienyl] ethanoate

> <PUBCHEM_IUPAC_TRADITIONAL_NAME>
acetic acid [(2E,4R,6R,7E)-9-acetoxy-4,6-dihydroxy-nona-2,7-dienyl] ester

> <PUBCHEM_IUPAC_INCHI>
InChI=1S/C13H20O6/c1-10(14)18-7-3-5-12(16)9-13(17)6-4-8-19-11(2)15/h3-6,12-13,16-17H,7-9H2,1-2H3/b5-3+,6-4+/t12-,13-/m0/s1

> <PUBCHEM_IUPAC_INCHIKEY>
VDDHHZRCTBJXBO-JREUMTCTSA-N

> <PUBCHEM_XLOGP3_AA>
-0.3

> <PUBCHEM_EXACT_MASS>
272.12598835

> <PUBCHEM_MOLECULAR_FORMULA>
C13H20O6

> <PUBCHEM_MOLECULAR_WEIGHT>
272.29

> <PUBCHEM_OPENEYE_CAN_SMILES>
CC(=O)OCC=CC(CC(C=CCOC(=O)C)O)O

> <PUBCHEM_OPENEYE_ISO_SMILES>
CC(=O)OC/C=C/[C@H](O)C[C@@H](O)/C=C/COC(=O)C

> <PUBCHEM_CACTVS_TPSA>
93.1

> <PUBCHEM_MONOISOTOPIC_WEIGHT>
272.12598835

> <PUBCHEM_TOTAL_CHARGE>
0

> <PUBCHEM_HEAVY_ATOM_COUNT>
19

> <PUBCHEM_ATOM_DEF_STEREO_COUNT>
2

> <PUBCHEM_ATOM_UDEF_STEREO_COUNT>
0

> <PUBCHEM_BOND_DEF_STEREO_COUNT>
2

> <PUBCHEM_BOND_UDEF_STEREO_COUNT>
0

> <PUBCHEM_ISOTOPIC_ATOM_COUNT>
0

> <PUBCHEM_COMPONENT_COUNT>
1

> <PUBCHEM_CACTVS_TAUTO_COUNT>
-1

> <PUBCHEM_COORDINATE_TYPE>
1
5
255

> <PUBCHEM_BONDANNOTATIONS>
8  1  5
9  2  6

$$$$
