 
  -OEChem-10192103582D

 46 49  0     1  0  0  0  0  0999 V2000
   10.2558   -0.1224    0.0000 O   0  0  0  0  0  0  0  0  0  0  0  0
    2.0000   -0.1224    0.0000 O   0  0  0  0  0  0  0  0  0  0  0  0
    9.9829    1.6329    0.0000 O   0  0  0  0  0  0  0  0  0  0  0  0
    2.2729    1.6329    0.0000 O   0  0  0  0  0  0  0  0  0  0  0  0
    9.9829   -1.8776    0.0000 O   0  0  0  0  0  0  0  0  0  0  0  0
    2.2729   -1.8776    0.0000 O   0  0  0  0  0  0  0  0  0  0  0  0
    6.9939    0.3776    0.0000 C   0  0  3  0  0  0  0  0  0  0  0  0
    5.2619    0.3776    0.0000 C   0  0  3  0  0  0  0  0  0  0  0  0
    6.1279    0.8776    0.0000 C   0  0  0  0  0  0  0  0  0  0  0  0
    7.8600    0.8776    0.0000 C   0  0  0  0  0  0  0  0  0  0  0  0
    4.3958    0.8776    0.0000 C   0  0  0  0  0  0  0  0  0  0  0  0
    6.9939   -0.6224    0.0000 C   0  0  0  0  0  0  0  0  0  0  0  0
    5.2619   -0.6224    0.0000 C   0  0  0  0  0  0  0  0  0  0  0  0
    8.7260    0.3776    0.0000 C   0  0  3  0  0  0  0  0  0  0  0  0
    3.5298    0.3776    0.0000 C   0  0  3  0  0  0  0  0  0  0  0  0
    8.7260   -0.6224    0.0000 C   0  0  3  0  0  0  0  0  0  0  0  0
    3.5298   -0.6224    0.0000 C   0  0  3  0  0  0  0  0  0  0  0  0
    7.8600   -1.1224    0.0000 C   0  0  0  0  0  0  0  0  0  0  0  0
    4.3958   -1.1224    0.0000 C   0  0  0  0  0  0  0  0  0  0  0  0
    6.1279    1.8776    0.0000 C   0  0  0  0  0  0  0  0  0  0  0  0
    9.6722    0.6824    0.0000 C   0  0  0  0  0  0  0  0  0  0  0  0
    2.5836    0.6824    0.0000 C   0  0  0  0  0  0  0  0  0  0  0  0
    9.6722   -0.9271    0.0000 C   0  0  0  0  0  0  0  0  0  0  0  0
    2.5836   -0.9271    0.0000 C   0  0  0  0  0  0  0  0  0  0  0  0
    7.5309    0.0676    0.0000 H   0  0  0  0  0  0  0  0  0  0  0  0
    5.7988    0.0676    0.0000 H   0  0  0  0  0  0  0  0  0  0  0  0
    6.6648    1.1876    0.0000 H   0  0  0  0  0  0  0  0  0  0  0  0
    8.2585    1.3526    0.0000 H   0  0  0  0  0  0  0  0  0  0  0  0
    7.4614    1.3526    0.0000 H   0  0  0  0  0  0  0  0  0  0  0  0
    4.7944    1.3526    0.0000 H   0  0  0  0  0  0  0  0  0  0  0  0
    3.9973    1.3526    0.0000 H   0  0  0  0  0  0  0  0  0  0  0  0
    6.3834   -0.5147    0.0000 H   0  0  0  0  0  0  0  0  0  0  0  0
    6.7819   -1.2050    0.0000 H   0  0  0  0  0  0  0  0  0  0  0  0
    5.4739   -1.2050    0.0000 H   0  0  0  0  0  0  0  0  0  0  0  0
    5.8725   -0.5147    0.0000 H   0  0  0  0  0  0  0  0  0  0  0  0
    8.7916    0.9941    0.0000 H   0  0  0  0  0  0  0  0  0  0  0  0
    3.4642    0.9941    0.0000 H   0  0  0  0  0  0  0  0  0  0  0  0
    8.7916   -1.2389    0.0000 H   0  0  0  0  0  0  0  0  0  0  0  0
    3.4642   -1.2389    0.0000 H   0  0  0  0  0  0  0  0  0  0  0  0
    7.4614   -1.5973    0.0000 H   0  0  0  0  0  0  0  0  0  0  0  0
    8.2585   -1.5973    0.0000 H   0  0  0  0  0  0  0  0  0  0  0  0
    3.9973   -1.5973    0.0000 H   0  0  0  0  0  0  0  0  0  0  0  0
    4.7944   -1.5973    0.0000 H   0  0  0  0  0  0  0  0  0  0  0  0
    6.7479    1.8776    0.0000 H   0  0  0  0  0  0  0  0  0  0  0  0
    6.1279    2.4976    0.0000 H   0  0  0  0  0  0  0  0  0  0  0  0
    5.5079    1.8776    0.0000 H   0  0  0  0  0  0  0  0  0  0  0  0
  1 21  1  0  0  0  0
  1 23  1  0  0  0  0
  2 22  1  0  0  0  0
  2 24  1  0  0  0  0
  3 21  2  0  0  0  0
  4 22  2  0  0  0  0
  5 23  2  0  0  0  0
  6 24  2  0  0  0  0
  7  9  1  0  0  0  0
  7 10  1  0  0  0  0
  7 12  1  0  0  0  0
  7 25  1  0  0  0  0
  8  9  1  0  0  0  0
  8 11  1  0  0  0  0
  8 13  1  0  0  0  0
  8 26  1  0  0  0  0
  9 20  1  0  0  0  0
  9 27  1  0  0  0  0
 10 14  1  0  0  0  0
 10 28  1  0  0  0  0
 10 29  1  0  0  0  0
 11 15  1  0  0  0  0
 11 30  1  0  0  0  0
 11 31  1  0  0  0  0
 12 18  1  0  0  0  0
 12 32  1  0  0  0  0
 12 33  1  0  0  0  0
 13 19  1  0  0  0  0
 13 34  1  0  0  0  0
 13 35  1  0  0  0  0
 14 16  1  0  0  0  0
 14 21  1  0  0  0  0
 14 36  1  0  0  0  0
 15 17  1  0  0  0  0
 15 22  1  0  0  0  0
 15 37  1  0  0  0  0
 16 18  1  0  0  0  0
 16 23  1  0  0  0  0
 16 38  1  0  0  0  0
 17 19  1  0  0  0  0
 17 24  1  0  0  0  0
 17 39  1  0  0  0  0
 18 40  1  0  0  0  0
 18 41  1  0  0  0  0
 19 42  1  0  0  0  0
 19 43  1  0  0  0  0
 20 44  1  0  0  0  0
 20 45  1  0  0  0  0
 20 46  1  0  0  0  0
M  END
> <PUBCHEM_COMPOUND_CID>
88891368

> <PUBCHEM_COMPOUND_CANONICALIZED>
1

> <PUBCHEM_CACTVS_COMPLEXITY>
559

> <PUBCHEM_CACTVS_HBOND_ACCEPTOR>
6

> <PUBCHEM_CACTVS_HBOND_DONOR>
0

> <PUBCHEM_CACTVS_ROTATABLE_BOND>
2

> <PUBCHEM_CACTVS_SUBSKEYS>
AAADceB4OAAAAAAAAAAAAAAAAAAAASJAAAAwYAAAAAAAAEgAAAAAGgAAAAAADQCAgAACCAAABAAIAACQCAAAAAAAAAAAAAEAAAAAABIAAAACAAAEAAAAAAGLyPCOgAAAAAAAAACAAAQAACAAAAAAAAAAAA==

> <PUBCHEM_IUPAC_OPENEYE_NAME>
5-[1-(1,3-dioxo-3a,4,5,6,7,7a-hexahydroisobenzofuran-5-yl)ethyl]-3a,4,5,6,7,7a-hexahydroisobenzofuran-1,3-dione

> <PUBCHEM_IUPAC_CAS_NAME>
5-[1-(1,3-dioxo-3a,4,5,6,7,7a-hexahydroisobenzofuran-5-yl)ethyl]-3a,4,5,6,7,7a-hexahydroisobenzofuran-1,3-dione

> <PUBCHEM_IUPAC_NAME_MARKUP>
5-[1-(1,3-dioxo-3<I>a</I>,4,5,6,7,7<I>a</I>-hexahydro-2-benzofuran-5-yl)ethyl]-3<I>a</I>,4,5,6,7,7<I>a</I>-hexahydro-2-benzofuran-1,3-dione

> <PUBCHEM_IUPAC_NAME>
5-[1-(1,3-dioxo-3a,4,5,6,7,7a-hexahydro-2-benzofuran-5-yl)ethyl]-3a,4,5,6,7,7a-hexahydro-2-benzofuran-1,3-dione

> <PUBCHEM_IUPAC_SYSTEMATIC_NAME>
5-[1-[1,3-bis(oxidanylidene)-3a,4,5,6,7,7a-hexahydro-2-benzofuran-5-yl]ethyl]-3a,4,5,6,7,7a-hexahydro-2-benzofuran-1,3-dione

> <PUBCHEM_IUPAC_TRADITIONAL_NAME>
5-[1-(1,3-diketo-3a,4,5,6,7,7a-hexahydroisobenzofuran-5-yl)ethyl]-3a,4,5,6,7,7a-hexahydroisobenzofuran-1,3-quinone

> <PUBCHEM_IUPAC_INCHI>
InChI=1S/C18H22O6/c1-8(9-2-4-11-13(6-9)17(21)23-15(11)19)10-3-5-12-14(7-10)18(22)24-16(12)20/h8-14H,2-7H2,1H3

> <PUBCHEM_IUPAC_INCHIKEY>
PFHRLEGLEVZHTK-UHFFFAOYSA-N

> <PUBCHEM_XLOGP3_AA>
2.4

> <PUBCHEM_EXACT_MASS>
334.14163842

> <PUBCHEM_MOLECULAR_FORMULA>
C18H22O6

> <PUBCHEM_MOLECULAR_WEIGHT>
334.4

> <PUBCHEM_OPENEYE_CAN_SMILES>
CC(C1CCC2C(C1)C(=O)OC2=O)C3CCC4C(C3)C(=O)OC4=O

> <PUBCHEM_OPENEYE_ISO_SMILES>
CC(C1CCC2C(C1)C(=O)OC2=O)C3CCC4C(C3)C(=O)OC4=O

> <PUBCHEM_CACTVS_TPSA>
86.7

> <PUBCHEM_MONOISOTOPIC_WEIGHT>
334.14163842

> <PUBCHEM_TOTAL_CHARGE>
0

> <PUBCHEM_HEAVY_ATOM_COUNT>
24

> <PUBCHEM_ATOM_DEF_STEREO_COUNT>
0

> <PUBCHEM_ATOM_UDEF_STEREO_COUNT>
6

> <PUBCHEM_BOND_DEF_STEREO_COUNT>
0

> <PUBCHEM_BOND_UDEF_STEREO_COUNT>
0

> <PUBCHEM_ISOTOPIC_ATOM_COUNT>
0

> <PUBCHEM_COMPONENT_COUNT>
1

> <PUBCHEM_CACTVS_TAUTO_COUNT>
-1

> <PUBCHEM_COORDINATE_TYPE>
1
5
255

> <PUBCHEM_BONDANNOTATIONS>
14  10  3
15  11  3
16  18  3
17  19  3
7  9  3
8  9  3

$$$$
