 
  -OEChem-10192103342D

 75 77  0     1  0  0  0  0  0999 V2000
    5.1350   -1.1440    0.0000 O   0  0  0  0  0  0  0  0  0  0  0  0
    6.8671   -1.1440    0.0000 O   0  0  0  0  0  0  0  0  0  0  0  0
    5.1350   -4.1440    0.0000 O   0  0  0  0  0  0  0  0  0  0  0  0
    3.4030   -3.1440    0.0000 O   0  0  0  0  0  0  0  0  0  0  0  0
    6.8671   -3.1440    0.0000 O   0  0  0  0  0  0  0  0  0  0  0  0
    6.0010    0.3560    0.0000 O   0  0  0  0  0  0  0  0  0  0  0  0
    2.5369   -1.6440    0.0000 O   0  0  0  0  0  0  0  0  0  0  0  0
   10.0991    2.7220    0.0000 O   0  0  0  0  0  0  0  0  0  0  0  0
    6.0010    3.3560    0.0000 O   0  0  0  0  0  0  0  0  0  0  0  0
    9.4651   -1.6440    0.0000 O   0  0  0  0  0  0  0  0  0  0  0  0
   10.0991    0.9899    0.0000 O   0  0  0  0  0  0  0  0  0  0  0  0
    7.7331    3.3560    0.0000 O   0  0  0  0  0  0  0  0  0  0  0  0
    8.5991   -3.1440    0.0000 O   0  0  0  0  0  0  0  0  0  0  0  0
   15.5991    3.5880    0.0000 O   0  0  0  0  0  0  0  0  0  0  0  0
    5.1350   -3.1440    0.0000 C   0  0  1  0  0  0  0  0  0  0  0  0
    4.2690   -2.6440    0.0000 C   0  0  1  0  0  0  0  0  0  0  0  0
    6.0010   -2.6440    0.0000 C   0  0  2  0  0  0  0  0  0  0  0  0
    4.2690   -1.6440    0.0000 C   0  0  1  0  0  0  0  0  0  0  0  0
    6.0010   -1.6440    0.0000 C   0  0  1  0  0  0  0  0  0  0  0  0
    3.4030   -1.1440    0.0000 C   0  0  0  0  0  0  0  0  0  0  0  0
    6.8671   -0.1440    0.0000 C   0  0  2  0  0  0  0  0  0  0  0  0
    7.7331    1.3560    0.0000 C   0  0  1  0  0  0  0  0  0  0  0  0
    7.7331    0.3560    0.0000 C   0  0  0  0  0  0  0  0  0  0  0  0
    6.8671    1.8560    0.0000 C   0  0  0  0  0  0  0  0  0  0  0  0
    8.5991    1.8560    0.0000 C   0  0  0  0  0  0  0  0  0  0  0  0
    8.5991   -0.1440    0.0000 C   0  0  0  0  0  0  0  0  0  0  0  0
    6.0010    1.3560    0.0000 C   0  0  0  0  0  0  0  0  0  0  0  0
    9.5991    1.8560    0.0000 C   0  0  0  0  0  0  0  0  0  0  0  0
    6.8671    2.8560    0.0000 C   0  0  0  0  0  0  0  0  0  0  0  0
    8.5991   -1.1440    0.0000 C   0  0  0  0  0  0  0  0  0  0  0  0
   11.0991    2.7220    0.0000 C   0  0  0  0  0  0  0  0  0  0  0  0
   11.5991    3.5880    0.0000 C   0  0  0  0  0  0  0  0  0  0  0  0
    6.0010    4.3560    0.0000 C   0  0  0  0  0  0  0  0  0  0  0  0
    9.4651   -2.6440    0.0000 C   0  0  0  0  0  0  0  0  0  0  0  0
   12.5991    3.5880    0.0000 C   0  0  0  0  0  0  0  0  0  0  0  0
   10.3312   -3.1440    0.0000 C   0  0  0  0  0  0  0  0  0  0  0  0
   13.0991    2.7220    0.0000 C   0  0  0  0  0  0  0  0  0  0  0  0
   13.0991    4.4540    0.0000 C   0  0  0  0  0  0  0  0  0  0  0  0
   14.0991    2.7220    0.0000 C   0  0  0  0  0  0  0  0  0  0  0  0
   14.0991    4.4540    0.0000 C   0  0  0  0  0  0  0  0  0  0  0  0
   14.5991    3.5880    0.0000 C   0  0  0  0  0  0  0  0  0  0  0  0
    4.5981   -3.4540    0.0000 H   0  0  0  0  0  0  0  0  0  0  0  0
    4.2690   -3.2640    0.0000 H   0  0  0  0  0  0  0  0  0  0  0  0
    6.0010   -3.2640    0.0000 H   0  0  0  0  0  0  0  0  0  0  0  0
    4.2690   -1.0240    0.0000 H   0  0  0  0  0  0  0  0  0  0  0  0
    6.0010   -1.0240    0.0000 H   0  0  0  0  0  0  0  0  0  0  0  0
    3.8015   -0.6691    0.0000 H   0  0  0  0  0  0  0  0  0  0  0  0
    3.0044   -0.6691    0.0000 H   0  0  0  0  0  0  0  0  0  0  0  0
    7.4040   -0.4540    0.0000 H   0  0  0  0  0  0  0  0  0  0  0  0
    8.2700    1.0460    0.0000 H   0  0  0  0  0  0  0  0  0  0  0  0
    4.5981   -4.4540    0.0000 H   0  0  0  0  0  0  0  0  0  0  0  0
    3.4030   -3.7640    0.0000 H   0  0  0  0  0  0  0  0  0  0  0  0
    6.8671   -3.7640    0.0000 H   0  0  0  0  0  0  0  0  0  0  0  0
    8.8112    2.4386    0.0000 H   0  0  0  0  0  0  0  0  0  0  0  0
    8.7596    1.2571    0.0000 H   0  0  0  0  0  0  0  0  0  0  0  0
    9.2191   -0.1440    0.0000 H   0  0  0  0  0  0  0  0  0  0  0  0
    5.4641    1.6660    0.0000 H   0  0  0  0  0  0  0  0  0  0  0  0
    2.0000   -1.3340    0.0000 H   0  0  0  0  0  0  0  0  0  0  0  0
    7.9885   -1.0364    0.0000 H   0  0  0  0  0  0  0  0  0  0  0  0
    8.3871   -1.7266    0.0000 H   0  0  0  0  0  0  0  0  0  0  0  0
   10.9915    2.1114    0.0000 H   0  0  0  0  0  0  0  0  0  0  0  0
   11.6817    2.5099    0.0000 H   0  0  0  0  0  0  0  0  0  0  0  0
   11.7068    4.1986    0.0000 H   0  0  0  0  0  0  0  0  0  0  0  0
   11.0165    3.8001    0.0000 H   0  0  0  0  0  0  0  0  0  0  0  0
    6.6210    4.3560    0.0000 H   0  0  0  0  0  0  0  0  0  0  0  0
    6.0010    4.9760    0.0000 H   0  0  0  0  0  0  0  0  0  0  0  0
    5.3810    4.3560    0.0000 H   0  0  0  0  0  0  0  0  0  0  0  0
   10.0212   -3.6810    0.0000 H   0  0  0  0  0  0  0  0  0  0  0  0
   10.8681   -3.4540    0.0000 H   0  0  0  0  0  0  0  0  0  0  0  0
   10.6412   -2.6071    0.0000 H   0  0  0  0  0  0  0  0  0  0  0  0
   12.7891    2.1850    0.0000 H   0  0  0  0  0  0  0  0  0  0  0  0
   12.7891    4.9910    0.0000 H   0  0  0  0  0  0  0  0  0  0  0  0
   14.4091    2.1850    0.0000 H   0  0  0  0  0  0  0  0  0  0  0  0
   14.4091    4.9910    0.0000 H   0  0  0  0  0  0  0  0  0  0  0  0
   15.9091    4.1250    0.0000 H   0  0  0  0  0  0  0  0  0  0  0  0
  1 18  1  0  0  0  0
  1 19  1  0  0  0  0
 19  2  1  1  0  0  0
 21  2  1  6  0  0  0
 15  3  1  1  0  0  0
  3 51  1  0  0  0  0
 16  4  1  6  0  0  0
  4 52  1  0  0  0  0
 17  5  1  6  0  0  0
  5 53  1  0  0  0  0
  6 21  1  0  0  0  0
  6 27  1  0  0  0  0
  7 20  1  0  0  0  0
  7 58  1  0  0  0  0
  8 28  1  0  0  0  0
  8 31  1  0  0  0  0
  9 29  1  0  0  0  0
  9 33  1  0  0  0  0
 10 30  1  0  0  0  0
 10 34  1  0  0  0  0
 11 28  2  0  0  0  0
 12 29  2  0  0  0  0
 13 34  2  0  0  0  0
 14 41  1  0  0  0  0
 14 75  1  0  0  0  0
 15 16  1  0  0  0  0
 15 17  1  0  0  0  0
 15 42  1  0  0  0  0
 16 18  1  0  0  0  0
 16 43  1  0  0  0  0
 17 19  1  0  0  0  0
 17 44  1  0  0  0  0
 18 20  1  1  0  0  0
 18 45  1  0  0  0  0
 19 46  1  0  0  0  0
 20 47  1  0  0  0  0
 20 48  1  0  0  0  0
 21 23  1  0  0  0  0
 21 49  1  0  0  0  0
 22 23  1  0  0  0  0
 22 24  1  0  0  0  0
 22 25  1  1  0  0  0
 22 50  1  0  0  0  0
 23 26  2  0  0  0  0
 24 27  2  0  0  0  0
 24 29  1  0  0  0  0
 25 28  1  0  0  0  0
 25 54  1  0  0  0  0
 25 55  1  0  0  0  0
 26 30  1  0  0  0  0
 26 56  1  0  0  0  0
 27 57  1  0  0  0  0
 30 59  1  0  0  0  0
 30 60  1  0  0  0  0
 31 32  1  0  0  0  0
 31 61  1  0  0  0  0
 31 62  1  0  0  0  0
 32 35  1  0  0  0  0
 32 63  1  0  0  0  0
 32 64  1  0  0  0  0
 33 65  1  0  0  0  0
 33 66  1  0  0  0  0
 33 67  1  0  0  0  0
 34 36  1  0  0  0  0
 35 37  2  0  0  0  0
 35 38  1  0  0  0  0
 36 68  1  0  0  0  0
 36 69  1  0  0  0  0
 36 70  1  0  0  0  0
 37 39  1  0  0  0  0
 37 71  1  0  0  0  0
 38 40  2  0  0  0  0
 38 72  1  0  0  0  0
 39 41  2  0  0  0  0
 39 73  1  0  0  0  0
 40 41  1  0  0  0  0
 40 74  1  0  0  0  0
M  END
> <PUBCHEM_COMPOUND_CID>
45359565

> <PUBCHEM_COMPOUND_CANONICALIZED>
1

> <PUBCHEM_CACTVS_COMPLEXITY>
956

> <PUBCHEM_CACTVS_HBOND_ACCEPTOR>
14

> <PUBCHEM_CACTVS_HBOND_DONOR>
5

> <PUBCHEM_CACTVS_ROTATABLE_BOND>
14

> <PUBCHEM_CACTVS_SUBSKEYS>
AAADcfB4PAAAAAAAAAAAAAAAAAAAAAAAAAA0QIAAAAAAAAABAAAAGgAACAAADRSwmAMyDoAABgCIAiDSCAACCAAgIAAIiAEGCMgZNjKCMRKicAAlwBEPuIfI5qwOIAAAAAAAAABAAAAAAAAAAAAAAAAAAA==

> <PUBCHEM_IUPAC_OPENEYE_NAME>
methyl (4S,5Z,6S)-5-(2-acetoxyethylidene)-4-[2-[2-(4-hydroxyphenyl)ethoxy]-2-oxo-ethyl]-6-[(2S,3R,4S,5S,6R)-3,4,5-trihydroxy-6-(hydroxymethyl)tetrahydropyran-2-yl]oxy-4H-pyran-3-carboxylate

> <PUBCHEM_IUPAC_CAS_NAME>
(4S,5Z,6S)-5-(2-acetyloxyethylidene)-4-[2-[2-(4-hydroxyphenyl)ethoxy]-2-oxoethyl]-6-[[(2S,3R,4S,5S,6R)-3,4,5-trihydroxy-6-(hydroxymethyl)-2-oxanyl]oxy]-4H-pyran-3-carboxylic acid methyl ester

> <PUBCHEM_IUPAC_NAME_MARKUP>
methyl (4<I>S</I>,5<I>Z</I>,6<I>S</I>)-5-(2-acetyloxyethylidene)-4-[2-[2-(4-hydroxyphenyl)ethoxy]-2-oxoethyl]-6-[(2<I>S</I>,3<I>R</I>,4<I>S</I>,5<I>S</I>,6<I>R</I>)-3,4,5-trihydroxy-6-(hydroxymethyl)oxan-2-yl]oxy-4<I>H</I>-pyran-3-carboxylate

> <PUBCHEM_IUPAC_NAME>
methyl (4S,5Z,6S)-5-(2-acetyloxyethylidene)-4-[2-[2-(4-hydroxyphenyl)ethoxy]-2-oxoethyl]-6-[(2S,3R,4S,5S,6R)-3,4,5-trihydroxy-6-(hydroxymethyl)oxan-2-yl]oxy-4H-pyran-3-carboxylate

> <PUBCHEM_IUPAC_SYSTEMATIC_NAME>
methyl (4S,5Z,6S)-5-(2-acetyloxyethylidene)-6-[(2S,3R,4S,5S,6R)-6-(hydroxymethyl)-3,4,5-tris(oxidanyl)oxan-2-yl]oxy-4-[2-[2-(4-hydroxyphenyl)ethoxy]-2-oxidanylidene-ethyl]-4H-pyran-3-carboxylate

> <PUBCHEM_IUPAC_TRADITIONAL_NAME>
(4S,5Z,6S)-5-(2-acetoxyethylidene)-4-[2-[2-(4-hydroxyphenyl)ethoxy]-2-keto-ethyl]-6-[(2S,3R,4S,5S,6R)-3,4,5-trihydroxy-6-methylol-tetrahydropyran-2-yl]oxy-4H-pyran-3-carboxylic acid methyl ester

> <PUBCHEM_IUPAC_INCHI>
InChI=1S/C27H34O14/c1-14(29)37-10-8-17-18(11-21(31)38-9-7-15-3-5-16(30)6-4-15)19(25(35)36-2)13-39-26(17)41-27-24(34)23(33)22(32)20(12-28)40-27/h3-6,8,13,18,20,22-24,26-28,30,32-34H,7,9-12H2,1-2H3/b17-8-/t18-,20+,22+,23-,24+,26-,27-/m0/s1

> <PUBCHEM_IUPAC_INCHIKEY>
DKRXODJAISNRGA-KIOYJQFDSA-N

> <PUBCHEM_XLOGP3_AA>
-0.8

> <PUBCHEM_EXACT_MASS>
582.19485575

> <PUBCHEM_MOLECULAR_FORMULA>
C27H34O14

> <PUBCHEM_MOLECULAR_WEIGHT>
582.5

> <PUBCHEM_OPENEYE_CAN_SMILES>
CC(=O)OCC=C1C(C(=COC1OC2C(C(C(C(O2)CO)O)O)O)C(=O)OC)CC(=O)OCCC3=CC=C(C=C3)O

> <PUBCHEM_OPENEYE_ISO_SMILES>
CC(=O)OC/C=C\1/[C@@H](C(=CO[C@H]1O[C@H]2[C@@H]([C@H]([C@@H]([C@H](O2)CO)O)O)O)C(=O)OC)CC(=O)OCCC3=CC=C(C=C3)O

> <PUBCHEM_CACTVS_TPSA>
208

> <PUBCHEM_MONOISOTOPIC_WEIGHT>
582.19485575

> <PUBCHEM_TOTAL_CHARGE>
0

> <PUBCHEM_HEAVY_ATOM_COUNT>
41

> <PUBCHEM_ATOM_DEF_STEREO_COUNT>
7

> <PUBCHEM_ATOM_UDEF_STEREO_COUNT>
0

> <PUBCHEM_BOND_DEF_STEREO_COUNT>
1

> <PUBCHEM_BOND_UDEF_STEREO_COUNT>
0

> <PUBCHEM_ISOTOPIC_ATOM_COUNT>
0

> <PUBCHEM_COMPONENT_COUNT>
1

> <PUBCHEM_CACTVS_TAUTO_COUNT>
-1

> <PUBCHEM_COORDINATE_TYPE>
1
5
255

> <PUBCHEM_BONDANNOTATIONS>
18  20  5
19  2  5
21  2  6
22  25  5
15  3  5
35  37  8
35  38  8
37  39  8
38  40  8
39  41  8
16  4  6
40  41  8
17  5  6

$$$$
