 
  -OEChem-10192104102D

 54 54  0     1  0  0  0  0  0999 V2000
    8.1906    2.0013    0.0000 O   0  0  0  0  0  0  0  0  0  0  0  0
    8.1906    0.2692    0.0000 O   0  0  0  0  0  0  0  0  0  0  0  0
    4.8966   -3.1069    0.0000 O   0  0  0  0  0  0  0  0  0  0  0  0
    6.2507   -2.0270    0.0000 O   0  0  0  0  0  0  0  0  0  0  0  0
    6.6906    2.8673    0.0000 O   0  0  0  0  0  0  0  0  0  0  0  0
    6.6906   -0.5968    0.0000 O   0  0  0  0  0  0  0  0  0  0  0  0
    3.2842   -2.4742    0.0000 O   0  0  0  0  0  0  0  0  0  0  0  0
    5.9926   -0.3143    0.0000 O   0  0  0  0  0  0  0  0  0  0  0  0
    4.1906    2.0013    0.0000 C   0  0  3  0  0  0  0  0  0  0  0  0
    3.7568    1.1003    0.0000 C   0  0  3  0  0  0  0  0  0  0  0  0
    3.7568    2.9022    0.0000 C   0  0  3  0  0  0  0  0  0  0  0  0
    2.7818    0.8778    0.0000 C   0  0  0  0  0  0  0  0  0  0  0  0
    2.7818    3.1248    0.0000 C   0  0  0  0  0  0  0  0  0  0  0  0
    5.1906    2.0013    0.0000 C   0  0  0  0  0  0  0  0  0  0  0  0
    4.3802    0.3185    0.0000 C   0  0  0  0  0  0  0  0  0  0  0  0
    2.0000    1.5013    0.0000 C   0  0  0  0  0  0  0  0  0  0  0  0
    2.0000    2.5013    0.0000 C   0  0  0  0  0  0  0  0  0  0  0  0
    4.3802    3.6841    0.0000 C   0  0  0  0  0  0  0  0  0  0  0  0
    5.6906    1.1353    0.0000 C   0  0  0  0  0  0  0  0  0  0  0  0
    4.0149   -0.6124    0.0000 C   0  0  0  0  0  0  0  0  0  0  0  0
    6.6906    1.1353    0.0000 C   0  0  0  0  0  0  0  0  0  0  0  0
    4.6384   -1.3942    0.0000 C   0  0  0  0  0  0  0  0  0  0  0  0
    7.1906    2.0013    0.0000 C   0  0  0  0  0  0  0  0  0  0  0  0
    7.1906    0.2692    0.0000 C   0  0  0  0  0  0  0  0  0  0  0  0
    4.2731   -2.3251    0.0000 C   0  0  0  0  0  0  0  0  0  0  0  0
    5.6272   -1.2452    0.0000 C   0  0  0  0  0  0  0  0  0  0  0  0
    4.5205    1.4763    0.0000 H   0  0  0  0  0  0  0  0  0  0  0  0
    3.5520    0.5151    0.0000 H   0  0  0  0  0  0  0  0  0  0  0  0
    4.3729    2.8328    0.0000 H   0  0  0  0  0  0  0  0  0  0  0  0
    2.2971    0.4912    0.0000 H   0  0  0  0  0  0  0  0  0  0  0  0
    3.0508    0.3192    0.0000 H   0  0  0  0  0  0  0  0  0  0  0  0
    3.0508    3.6834    0.0000 H   0  0  0  0  0  0  0  0  0  0  0  0
    2.2971    3.5113    0.0000 H   0  0  0  0  0  0  0  0  0  0  0  0
    5.7732    2.2133    0.0000 H   0  0  0  0  0  0  0  0  0  0  0  0
    5.0830    2.6119    0.0000 H   0  0  0  0  0  0  0  0  0  0  0  0
    4.9093   -0.0048    0.0000 H   0  0  0  0  0  0  0  0  0  0  0  0
    4.7905    0.7833    0.0000 H   0  0  0  0  0  0  0  0  0  0  0  0
    1.3955    1.6392    0.0000 H   0  0  0  0  0  0  0  0  0  0  0  0
    1.7310    0.9427    0.0000 H   0  0  0  0  0  0  0  0  0  0  0  0
    1.7310    3.0599    0.0000 H   0  0  0  0  0  0  0  0  0  0  0  0
    1.3955    2.3633    0.0000 H   0  0  0  0  0  0  0  0  0  0  0  0
    4.8650    3.2975    0.0000 H   0  0  0  0  0  0  0  0  0  0  0  0
    4.7668    4.1688    0.0000 H   0  0  0  0  0  0  0  0  0  0  0  0
    3.8955    4.0706    0.0000 H   0  0  0  0  0  0  0  0  0  0  0  0
    5.1080    0.9232    0.0000 H   0  0  0  0  0  0  0  0  0  0  0  0
    5.7983    0.5247    0.0000 H   0  0  0  0  0  0  0  0  0  0  0  0
    3.4859   -0.2891    0.0000 H   0  0  0  0  0  0  0  0  0  0  0  0
    3.6047   -1.0773    0.0000 H   0  0  0  0  0  0  0  0  0  0  0  0
    6.3806    1.6722    0.0000 H   0  0  0  0  0  0  0  0  0  0  0  0
    5.0250   -1.8790    0.0000 H   0  0  0  0  0  0  0  0  0  0  0  0
    8.5006    2.5382    0.0000 H   0  0  0  0  0  0  0  0  0  0  0  0
    8.5006   -0.2677    0.0000 H   0  0  0  0  0  0  0  0  0  0  0  0
    4.6700   -3.6841    0.0000 H   0  0  0  0  0  0  0  0  0  0  0  0
    6.8638   -1.9346    0.0000 H   0  0  0  0  0  0  0  0  0  0  0  0
  1 23  1  0  0  0  0
  1 51  1  0  0  0  0
  2 24  1  0  0  0  0
  2 52  1  0  0  0  0
  3 25  1  0  0  0  0
  3 53  1  0  0  0  0
  4 26  1  0  0  0  0
  4 54  1  0  0  0  0
  5 23  2  0  0  0  0
  6 24  2  0  0  0  0
  7 25  2  0  0  0  0
  8 26  2  0  0  0  0
  9 10  1  0  0  0  0
  9 11  1  0  0  0  0
  9 14  1  0  0  0  0
  9 27  1  0  0  0  0
 10 12  1  0  0  0  0
 10 15  1  0  0  0  0
 10 28  1  0  0  0  0
 11 13  1  0  0  0  0
 11 18  1  0  0  0  0
 11 29  1  0  0  0  0
 12 16  1  0  0  0  0
 12 30  1  0  0  0  0
 12 31  1  0  0  0  0
 13 17  1  0  0  0  0
 13 32  1  0  0  0  0
 13 33  1  0  0  0  0
 14 19  1  0  0  0  0
 14 34  1  0  0  0  0
 14 35  1  0  0  0  0
 15 20  1  0  0  0  0
 15 36  1  0  0  0  0
 15 37  1  0  0  0  0
 16 17  1  0  0  0  0
 16 38  1  0  0  0  0
 16 39  1  0  0  0  0
 17 40  1  0  0  0  0
 17 41  1  0  0  0  0
 18 42  1  0  0  0  0
 18 43  1  0  0  0  0
 18 44  1  0  0  0  0
 19 21  1  0  0  0  0
 19 45  1  0  0  0  0
 19 46  1  0  0  0  0
 20 22  1  0  0  0  0
 20 47  1  0  0  0  0
 20 48  1  0  0  0  0
 21 23  1  0  0  0  0
 21 24  1  0  0  0  0
 21 49  1  0  0  0  0
 22 25  1  0  0  0  0
 22 26  1  0  0  0  0
 22 50  1  0  0  0  0
M  END
> <PUBCHEM_COMPOUND_CID>
68419396

> <PUBCHEM_COMPOUND_CANONICALIZED>
1

> <PUBCHEM_CACTVS_COMPLEXITY>
501

> <PUBCHEM_CACTVS_HBOND_ACCEPTOR>
8

> <PUBCHEM_CACTVS_HBOND_DONOR>
4

> <PUBCHEM_CACTVS_ROTATABLE_BOND>
10

> <PUBCHEM_CACTVS_SUBSKEYS>
AAADceB4PAAAAAAAAAAAAAAAAAAAAAAAAAAAAAAABgAAAAAAAAAAGgAACAAADQCAgAACCAAAAgAIAACQCAAAAAAAAAAAAAEAAAAAABYIAAAAQAAFIAAAAAGIyPCOgAAAAAAAAAAAAAAAAAAAAAAAAAAAAA==

> <PUBCHEM_IUPAC_OPENEYE_NAME>
2-[2-[2-(3,3-dicarboxypropyl)-3-methyl-cycloheptyl]ethyl]propanedioic acid

> <PUBCHEM_IUPAC_CAS_NAME>
2-[2-[2-(3,3-dicarboxypropyl)-3-methylcycloheptyl]ethyl]propanedioic acid

> <PUBCHEM_IUPAC_NAME_MARKUP>
2-[2-[2-(3,3-dicarboxypropyl)-3-methylcycloheptyl]ethyl]propanedioic acid

> <PUBCHEM_IUPAC_NAME>
2-[2-[2-(3,3-dicarboxypropyl)-3-methylcycloheptyl]ethyl]propanedioic acid

> <PUBCHEM_IUPAC_SYSTEMATIC_NAME>
2-[2-[2-(3-carboxy-4-oxidanyl-4-oxidanylidene-butyl)-3-methyl-cycloheptyl]ethyl]propanedioic acid

> <PUBCHEM_IUPAC_TRADITIONAL_NAME>
2-[2-[2-(3,3-dicarboxypropyl)-3-methyl-cycloheptyl]ethyl]malonic acid

> <PUBCHEM_IUPAC_INCHI>
InChI=1S/C18H28O8/c1-10-4-2-3-5-11(6-7-13(15(19)20)16(21)22)12(10)8-9-14(17(23)24)18(25)26/h10-14H,2-9H2,1H3,(H,19,20)(H,21,22)(H,23,24)(H,25,26)

> <PUBCHEM_IUPAC_INCHIKEY>
MNNZJRFRVSCJEF-UHFFFAOYSA-N

> <PUBCHEM_XLOGP3_AA>
3.9

> <PUBCHEM_EXACT_MASS>
372.17841785

> <PUBCHEM_MOLECULAR_FORMULA>
C18H28O8

> <PUBCHEM_MOLECULAR_WEIGHT>
372.4

> <PUBCHEM_OPENEYE_CAN_SMILES>
CC1CCCCC(C1CCC(C(=O)O)C(=O)O)CCC(C(=O)O)C(=O)O

> <PUBCHEM_OPENEYE_ISO_SMILES>
CC1CCCCC(C1CCC(C(=O)O)C(=O)O)CCC(C(=O)O)C(=O)O

> <PUBCHEM_CACTVS_TPSA>
149

> <PUBCHEM_MONOISOTOPIC_WEIGHT>
372.17841785

> <PUBCHEM_TOTAL_CHARGE>
0

> <PUBCHEM_HEAVY_ATOM_COUNT>
26

> <PUBCHEM_ATOM_DEF_STEREO_COUNT>
0

> <PUBCHEM_ATOM_UDEF_STEREO_COUNT>
3

> <PUBCHEM_BOND_DEF_STEREO_COUNT>
0

> <PUBCHEM_BOND_UDEF_STEREO_COUNT>
0

> <PUBCHEM_ISOTOPIC_ATOM_COUNT>
0

> <PUBCHEM_COMPONENT_COUNT>
1

> <PUBCHEM_CACTVS_TAUTO_COUNT>
-1

> <PUBCHEM_COORDINATE_TYPE>
1
5
255

> <PUBCHEM_BONDANNOTATIONS>
10  15  3
11  18  3
9  14  3

$$$$
