 
  -OEChem-10192104132D

 23 24  0     1  0  0  0  0  0999 V2000
    2.3660    1.5280    0.0000 O   0  0  0  0  0  0  0  0  0  0  0  0
    4.2320    3.0280    0.0000 O   0  0  0  0  0  0  0  0  0  0  0  0
    5.0981    1.5280    0.0000 O   0  0  0  0  0  0  0  0  0  0  0  0
    2.8660    0.6620    0.0000 C   0  0  2  0  0  0  0  0  0  0  0  0
    3.3660    1.5280    0.0000 C   0  0  2  0  0  0  0  0  0  0  0  0
    2.8660   -0.3380    0.0000 C   0  0  0  0  0  0  0  0  0  0  0  0
    4.2320    2.0280    0.0000 C   0  0  0  0  0  0  0  0  0  0  0  0
    2.0000   -0.8380    0.0000 C   0  0  0  0  0  0  0  0  0  0  0  0
    3.7320   -0.8380    0.0000 C   0  0  0  0  0  0  0  0  0  0  0  0
    2.0000   -1.8380    0.0000 C   0  0  0  0  0  0  0  0  0  0  0  0
    3.7320   -1.8380    0.0000 C   0  0  0  0  0  0  0  0  0  0  0  0
    2.8660   -2.3380    0.0000 C   0  0  0  0  0  0  0  0  0  0  0  0
    2.8660   -3.3380    0.0000 C   0  0  0  0  0  0  0  0  0  0  0  0
    3.4649    0.5015    0.0000 H   0  0  0  0  0  0  0  0  0  0  0  0
    3.2056    2.1269    0.0000 H   0  0  0  0  0  0  0  0  0  0  0  0
    1.4631   -0.5280    0.0000 H   0  0  0  0  0  0  0  0  0  0  0  0
    4.2690   -0.5280    0.0000 H   0  0  0  0  0  0  0  0  0  0  0  0
    1.4631   -2.1480    0.0000 H   0  0  0  0  0  0  0  0  0  0  0  0
    4.2690   -2.1480    0.0000 H   0  0  0  0  0  0  0  0  0  0  0  0
    2.2460   -3.3380    0.0000 H   0  0  0  0  0  0  0  0  0  0  0  0
    2.8660   -3.9580    0.0000 H   0  0  0  0  0  0  0  0  0  0  0  0
    3.4860   -3.3380    0.0000 H   0  0  0  0  0  0  0  0  0  0  0  0
    4.7690    3.3380    0.0000 H   0  0  0  0  0  0  0  0  0  0  0  0
  4  1  1  1  0  0  0
  1  5  1  0  0  0  0
  2  7  1  0  0  0  0
  2 23  1  0  0  0  0
  3  7  2  0  0  0  0
  4  5  1  0  0  0  0
  4  6  1  0  0  0  0
  4 14  1  0  0  0  0
  5  7  1  1  0  0  0
  5 15  1  0  0  0  0
  6  8  2  0  0  0  0
  6  9  1  0  0  0  0
  8 10  1  0  0  0  0
  8 16  1  0  0  0  0
  9 11  2  0  0  0  0
  9 17  1  0  0  0  0
 10 12  2  0  0  0  0
 10 18  1  0  0  0  0
 11 12  1  0  0  0  0
 11 19  1  0  0  0  0
 12 13  1  0  0  0  0
 13 20  1  0  0  0  0
 13 21  1  0  0  0  0
 13 22  1  0  0  0  0
M  END
> <PUBCHEM_COMPOUND_CID>
10856038

> <PUBCHEM_COMPOUND_CANONICALIZED>
1

> <PUBCHEM_CACTVS_COMPLEXITY>
206

> <PUBCHEM_CACTVS_HBOND_ACCEPTOR>
3

> <PUBCHEM_CACTVS_HBOND_DONOR>
1

> <PUBCHEM_CACTVS_ROTATABLE_BOND>
2

> <PUBCHEM_CACTVS_SUBSKEYS>
AAADccBwMAAAAAAAAAAAAAAAEgAAAAAAAAAwAAAAAAAAAAABAAAAGgAACAAADBSgmAIyCIAABgCIAiDSCAICAAAgAAAIiAFACIgJJjaAMRyCcAAl4AELqAeIyPCOQAAAAAAAAACAAAAAAAAAAAAAAAAAAA==

> <PUBCHEM_IUPAC_OPENEYE_NAME>
(2R,3S)-3-(p-tolyl)oxirane-2-carboxylic acid

> <PUBCHEM_IUPAC_CAS_NAME>
(2R,3S)-3-(4-methylphenyl)-2-oxiranecarboxylic acid

> <PUBCHEM_IUPAC_NAME_MARKUP>
(2<I>R</I>,3<I>S</I>)-3-(4-methylphenyl)oxirane-2-carboxylic acid

> <PUBCHEM_IUPAC_NAME>
(2R,3S)-3-(4-methylphenyl)oxirane-2-carboxylic acid

> <PUBCHEM_IUPAC_SYSTEMATIC_NAME>
(2R,3S)-3-(4-methylphenyl)oxirane-2-carboxylic acid

> <PUBCHEM_IUPAC_TRADITIONAL_NAME>
(2R,3S)-3-(p-tolyl)oxirane-2-carboxylic acid

> <PUBCHEM_IUPAC_INCHI>
InChI=1S/C10H10O3/c1-6-2-4-7(5-3-6)8-9(13-8)10(11)12/h2-5,8-9H,1H3,(H,11,12)/t8-,9+/m0/s1

> <PUBCHEM_IUPAC_INCHIKEY>
KYFKCKUXXZSOTF-DTWKUNHWSA-N

> <PUBCHEM_XLOGP3_AA>
1.4

> <PUBCHEM_EXACT_MASS>
178.062994177

> <PUBCHEM_MOLECULAR_FORMULA>
C10H10O3

> <PUBCHEM_MOLECULAR_WEIGHT>
178.18

> <PUBCHEM_OPENEYE_CAN_SMILES>
CC1=CC=C(C=C1)C2C(O2)C(=O)O

> <PUBCHEM_OPENEYE_ISO_SMILES>
CC1=CC=C(C=C1)[C@H]2[C@@H](O2)C(=O)O

> <PUBCHEM_CACTVS_TPSA>
49.8

> <PUBCHEM_MONOISOTOPIC_WEIGHT>
178.062994177

> <PUBCHEM_TOTAL_CHARGE>
0

> <PUBCHEM_HEAVY_ATOM_COUNT>
13

> <PUBCHEM_ATOM_DEF_STEREO_COUNT>
2

> <PUBCHEM_ATOM_UDEF_STEREO_COUNT>
0

> <PUBCHEM_BOND_DEF_STEREO_COUNT>
0

> <PUBCHEM_BOND_UDEF_STEREO_COUNT>
0

> <PUBCHEM_ISOTOPIC_ATOM_COUNT>
0

> <PUBCHEM_COMPONENT_COUNT>
1

> <PUBCHEM_CACTVS_TAUTO_COUNT>
-1

> <PUBCHEM_COORDINATE_TYPE>
1
5
255

> <PUBCHEM_BONDANNOTATIONS>
4  1  5
10  12  8
11  12  8
5  7  5
6  8  8
6  9  8
8  10  8
9  11  8

$$$$
