 
  -OEChem-10192104332D

 50 52  0     1  0  0  0  0  0999 V2000
    6.1346    0.6063    0.0000 O   0  0  0  0  0  0  0  0  0  0  0  0
    8.4806   -0.4856    0.0000 O   0  0  0  0  0  0  0  0  0  0  0  0
    8.4843    1.6900    0.0000 O   0  0  0  0  0  0  0  0  0  0  0  0
    5.4386    2.5754    0.0000 O   0  0  0  0  0  0  0  0  0  0  0  0
    4.5981   -3.9590    0.0000 O   0  0  0  0  0  0  0  0  0  0  0  0
    9.5011    0.9139    0.0000 O   0  0  0  0  0  0  0  0  0  0  0  0
    7.4687    3.0930    0.0000 O   0  0  0  0  0  0  0  0  0  0  0  0
    5.8017    4.2690    0.0000 O   0  0  0  0  0  0  0  0  0  0  0  0
    2.0000   -1.4590    0.0000 O   0  5  0  0  0  0  0  0  0  0  0  0
    2.8660    0.0410    0.0000 O   0  0  0  0  0  0  0  0  0  0  0  0
    6.4103   -1.1543    0.0000 N   0  0  0  0  0  0  0  0  0  0  0  0
    6.4103   -2.7638    0.0000 N   0  0  0  0  0  0  0  0  0  0  0  0
    4.5981   -2.9590    0.0000 N   0  3  0  0  0  0  0  0  0  0  0  0
    2.8660   -0.9590    0.0000 N   0  3  0  0  0  0  0  0  0  0  0  0
    7.6726    0.1036    0.0000 C   0  0  2  0  0  0  0  0  0  0  0  0
    7.6743    1.1036    0.0000 C   0  0  1  0  0  0  0  0  0  0  0  0
    6.7210   -0.2038    0.0000 C   0  0  1  0  0  0  0  0  0  0  0  0
    6.7238    1.4143    0.0000 C   0  0  1  0  0  0  0  0  0  0  0  0
    6.4164    2.3658    0.0000 C   0  0  0  0  0  0  0  0  0  0  0  0
    5.4641   -1.4590    0.0000 C   0  0  0  0  0  0  0  0  0  0  0  0
    6.9939   -1.9590    0.0000 C   0  0  0  0  0  0  0  0  0  0  0  0
    5.4641   -2.4590    0.0000 C   0  0  0  0  0  0  0  0  0  0  0  0
    4.5981   -0.9590    0.0000 C   0  0  0  0  0  0  0  0  0  0  0  0
    9.3948   -0.0804    0.0000 C   0  0  0  0  0  0  0  0  0  0  0  0
    8.3815    2.6847    0.0000 C   0  0  0  0  0  0  0  0  0  0  0  0
    3.7320   -1.4590    0.0000 C   0  0  0  0  0  0  0  0  0  0  0  0
    3.7320   -2.4590    0.0000 C   0  0  0  0  0  0  0  0  0  0  0  0
   10.2028   -0.6696    0.0000 C   0  0  0  0  0  0  0  0  0  0  0  0
    5.1313    3.5270    0.0000 C   0  0  0  0  0  0  0  0  0  0  0  0
    9.1916    3.2711    0.0000 C   0  0  0  0  0  0  0  0  0  0  0  0
    4.1535    3.7366    0.0000 C   0  0  0  0  0  0  0  0  0  0  0  0
    8.2255    0.3841    0.0000 H   0  0  0  0  0  0  0  0  0  0  0  0
    8.2262    0.8212    0.0000 H   0  0  0  0  0  0  0  0  0  0  0  0
    6.1085   -0.2997    0.0000 H   0  0  0  0  0  0  0  0  0  0  0  0
    6.1116    1.5123    0.0000 H   0  0  0  0  0  0  0  0  0  0  0  0
    7.0305    2.4511    0.0000 H   0  0  0  0  0  0  0  0  0  0  0  0
    6.4391    2.9854    0.0000 H   0  0  0  0  0  0  0  0  0  0  0  0
    7.6139   -1.9590    0.0000 H   0  0  0  0  0  0  0  0  0  0  0  0
    4.5981   -0.3390    0.0000 H   0  0  0  0  0  0  0  0  0  0  0  0
    3.1951   -2.7690    0.0000 H   0  0  0  0  0  0  0  0  0  0  0  0
    9.8375   -1.1706    0.0000 H   0  0  0  0  0  0  0  0  0  0  0  0
   10.7038   -1.0349    0.0000 H   0  0  0  0  0  0  0  0  0  0  0  0
   10.5681   -0.1687    0.0000 H   0  0  0  0  0  0  0  0  0  0  0  0
    9.5551    2.7688    0.0000 H   0  0  0  0  0  0  0  0  0  0  0  0
    9.6938    3.6346    0.0000 H   0  0  0  0  0  0  0  0  0  0  0  0
    8.8280    3.7733    0.0000 H   0  0  0  0  0  0  0  0  0  0  0  0
    4.0611   -4.2690    0.0000 H   0  0  0  0  0  0  0  0  0  0  0  0
    4.2834    4.3429    0.0000 H   0  0  0  0  0  0  0  0  0  0  0  0
    3.5472    3.8666    0.0000 H   0  0  0  0  0  0  0  0  0  0  0  0
    4.0235    3.1304    0.0000 H   0  0  0  0  0  0  0  0  0  0  0  0
  1 17  1  0  0  0  0
  1 18  1  0  0  0  0
 15  2  1  1  0  0  0
  2 24  1  0  0  0  0
 16  3  1  1  0  0  0
  3 25  1  0  0  0  0
  4 19  1  0  0  0  0
  4 29  1  0  0  0  0
  5 13  1  0  0  0  0
  5 47  1  0  0  0  0
  6 24  2  0  0  0  0
  7 25  2  0  0  0  0
  8 29  2  0  0  0  0
  9 14  1  0  0  0  0
 10 14  2  0  0  0  0
 17 11  1  6  0  0  0
 11 20  1  0  0  0  0
 11 21  1  0  0  0  0
 12 21  2  0  0  0  0
 12 22  1  0  0  0  0
 13 22  1  0  0  0  0
 13 27  2  0  0  0  0
 14 26  1  0  0  0  0
 15 16  1  0  0  0  0
 15 17  1  0  0  0  0
 15 32  1  0  0  0  0
 16 18  1  0  0  0  0
 16 33  1  0  0  0  0
 17 34  1  0  0  0  0
 18 19  1  6  0  0  0
 18 35  1  0  0  0  0
 19 36  1  0  0  0  0
 19 37  1  0  0  0  0
 20 22  2  0  0  0  0
 20 23  1  0  0  0  0
 21 38  1  0  0  0  0
 23 26  2  0  0  0  0
 23 39  1  0  0  0  0
 24 28  1  0  0  0  0
 25 30  1  0  0  0  0
 26 27  1  0  0  0  0
 27 40  1  0  0  0  0
 28 41  1  0  0  0  0
 28 42  1  0  0  0  0
 28 43  1  0  0  0  0
 29 31  1  0  0  0  0
 30 44  1  0  0  0  0
 30 45  1  0  0  0  0
 30 46  1  0  0  0  0
 31 48  1  0  0  0  0
 31 49  1  0  0  0  0
 31 50  1  0  0  0  0
M  CHG  3   9  -1  13   1  14   1
M  END
> <PUBCHEM_COMPOUND_CID>
100999472

> <PUBCHEM_COMPOUND_CANONICALIZED>
1

> <PUBCHEM_CACTVS_COMPLEXITY>
730

> <PUBCHEM_CACTVS_HBOND_ACCEPTOR>
11

> <PUBCHEM_CACTVS_HBOND_DONOR>
1

> <PUBCHEM_CACTVS_ROTATABLE_BOND>
8

> <PUBCHEM_CACTVS_SUBSKEYS>
AAADceB7vAAAAAAAAAAAAAAAAAAAAWJAAAAsAAAAAAAAAFgB+AAAHgAECAAACBzhlwY/+L8cVACpATb3bwCCgC0xEqAh2CA4dJqLaOLA2dGfJAhvgILayCbwMAoAAAAAAAAAAAAAAAAAAAAAAAAAAAAAAA==

> <PUBCHEM_IUPAC_OPENEYE_NAME>
[(2R,3R,4R,5R)-3,4-diacetoxy-5-(4-hydroxy-6-nitro-imidazo[4,5-b]pyridin-4-ium-1-yl)tetrahydrofuran-2-yl]methyl acetate

> <PUBCHEM_IUPAC_CAS_NAME>
acetic acid [(2R,3R,4R,5R)-3,4-diacetyloxy-5-(4-hydroxy-6-nitro-1-imidazo[4,5-b]pyridin-4-iumyl)-2-oxolanyl]methyl ester

> <PUBCHEM_IUPAC_NAME_MARKUP>
[(2<I>R</I>,3<I>R</I>,4<I>R</I>,5<I>R</I>)-3,4-diacetyloxy-5-(4-hydroxy-6-nitroimidazo[4,5-b]pyridin-4-ium-1-yl)oxolan-2-yl]methyl acetate

> <PUBCHEM_IUPAC_NAME>
[(2R,3R,4R,5R)-3,4-diacetyloxy-5-(4-hydroxy-6-nitroimidazo[4,5-b]pyridin-4-ium-1-yl)oxolan-2-yl]methyl acetate

> <PUBCHEM_IUPAC_SYSTEMATIC_NAME>
[(2R,3R,4R,5R)-3,4-diacetyloxy-5-(6-nitro-4-oxidanyl-imidazo[4,5-b]pyridin-4-ium-1-yl)oxolan-2-yl]methyl ethanoate

> <PUBCHEM_IUPAC_TRADITIONAL_NAME>
acetic acid [(2R,3R,4R,5R)-3,4-diacetoxy-5-(4-hydroxy-6-nitro-imidazo[4,5-b]pyridin-4-ium-1-yl)tetrahydrofuran-2-yl]methyl ester

> <PUBCHEM_IUPAC_INCHI>
InChI=1S/C17H19N4O10/c1-8(22)28-6-13-14(29-9(2)23)15(30-10(3)24)17(31-13)19-7-18-16-12(19)4-11(21(26)27)5-20(16)25/h4-5,7,13-15,17,25H,6H2,1-3H3/q+1/t13-,14-,15-,17-/m1/s1

> <PUBCHEM_IUPAC_INCHIKEY>
BFAVUGFLBLJZIC-KCYZZUKISA-N

> <PUBCHEM_XLOGP3_AA>
0.3

> <PUBCHEM_EXACT_MASS>
439.11011782

> <PUBCHEM_MOLECULAR_FORMULA>
C17H19N4O10+

> <PUBCHEM_MOLECULAR_WEIGHT>
439.4

> <PUBCHEM_OPENEYE_CAN_SMILES>
CC(=O)OCC1C(C(C(O1)N2C=NC3=C2C=C(C=[N+]3O)[N+](=O)[O-])OC(=O)C)OC(=O)C

> <PUBCHEM_OPENEYE_ISO_SMILES>
CC(=O)OC[C@@H]1[C@H]([C@H]([C@@H](O1)N2C=NC3=C2C=C(C=[N+]3O)[N+](=O)[O-])OC(=O)C)OC(=O)C

> <PUBCHEM_CACTVS_TPSA>
176

> <PUBCHEM_MONOISOTOPIC_WEIGHT>
439.11011782

> <PUBCHEM_TOTAL_CHARGE>
1

> <PUBCHEM_HEAVY_ATOM_COUNT>
31

> <PUBCHEM_ATOM_DEF_STEREO_COUNT>
4

> <PUBCHEM_ATOM_UDEF_STEREO_COUNT>
0

> <PUBCHEM_BOND_DEF_STEREO_COUNT>
0

> <PUBCHEM_BOND_UDEF_STEREO_COUNT>
0

> <PUBCHEM_ISOTOPIC_ATOM_COUNT>
0

> <PUBCHEM_COMPONENT_COUNT>
1

> <PUBCHEM_CACTVS_TAUTO_COUNT>
-1

> <PUBCHEM_COORDINATE_TYPE>
1
5
255

> <PUBCHEM_BONDANNOTATIONS>
17  11  6
11  20  8
11  21  8
12  21  8
12  22  8
13  22  8
13  27  8
18  19  6
15  2  5
20  22  8
20  23  8
23  26  8
26  27  8
16  3  5

$$$$
