 
  -OEChem-10192103482D

 55 54  0     0  0  0  0  0  0999 V2000
   11.1972   -1.2500    0.0000 O   0  0  0  0  0  0  0  0  0  0  0  0
    2.5369   -0.2500    0.0000 O   0  0  0  0  0  0  0  0  0  0  0  0
   18.9914    0.2500    0.0000 O   0  0  0  0  0  0  0  0  0  0  0  0
    3.4030    1.2500    0.0000 O   0  0  0  0  0  0  0  0  0  0  0  0
   18.1254   -1.2500    0.0000 O   0  0  0  0  0  0  0  0  0  0  0  0
    8.5991    0.2500    0.0000 C   0  0  0  0  0  0  0  0  0  0  0  0
    7.7331   -0.2500    0.0000 C   0  0  0  0  0  0  0  0  0  0  0  0
    9.4651   -0.2500    0.0000 C   0  0  0  0  0  0  0  0  0  0  0  0
    6.8671    0.2500    0.0000 C   0  0  0  0  0  0  0  0  0  0  0  0
   13.7953    0.2500    0.0000 C   0  0  0  0  0  0  0  0  0  0  0  0
   12.9292   -0.2500    0.0000 C   0  0  0  0  0  0  0  0  0  0  0  0
   10.3312    0.2500    0.0000 C   0  0  0  0  0  0  0  0  0  0  0  0
   14.6613   -0.2500    0.0000 C   0  0  0  0  0  0  0  0  0  0  0  0
   12.0632    0.2500    0.0000 C   0  0  0  0  0  0  0  0  0  0  0  0
    6.0010   -0.2500    0.0000 C   0  0  0  0  0  0  0  0  0  0  0  0
   15.5273    0.2500    0.0000 C   0  0  0  0  0  0  0  0  0  0  0  0
   11.1972   -0.2500    0.0000 C   0  0  0  0  0  0  0  0  0  0  0  0
    5.1350    0.2500    0.0000 C   0  0  0  0  0  0  0  0  0  0  0  0
   16.3933   -0.2500    0.0000 C   0  0  0  0  0  0  0  0  0  0  0  0
    4.2690   -0.2500    0.0000 C   0  0  0  0  0  0  0  0  0  0  0  0
   17.2594    0.2500    0.0000 C   0  0  0  0  0  0  0  0  0  0  0  0
    3.4030    0.2500    0.0000 C   0  0  0  0  0  0  0  0  0  0  0  0
   18.1254   -0.2500    0.0000 C   0  0  0  0  0  0  0  0  0  0  0  0
    8.9976    0.7249    0.0000 H   0  0  0  0  0  0  0  0  0  0  0  0
    8.2006    0.7249    0.0000 H   0  0  0  0  0  0  0  0  0  0  0  0
    7.3346   -0.7249    0.0000 H   0  0  0  0  0  0  0  0  0  0  0  0
    8.1316   -0.7249    0.0000 H   0  0  0  0  0  0  0  0  0  0  0  0
    9.0666   -0.7249    0.0000 H   0  0  0  0  0  0  0  0  0  0  0  0
    9.8637   -0.7249    0.0000 H   0  0  0  0  0  0  0  0  0  0  0  0
    7.2656    0.7249    0.0000 H   0  0  0  0  0  0  0  0  0  0  0  0
    6.4685    0.7249    0.0000 H   0  0  0  0  0  0  0  0  0  0  0  0
   14.1938    0.7249    0.0000 H   0  0  0  0  0  0  0  0  0  0  0  0
   13.3967    0.7249    0.0000 H   0  0  0  0  0  0  0  0  0  0  0  0
   12.5307   -0.7249    0.0000 H   0  0  0  0  0  0  0  0  0  0  0  0
   13.3278   -0.7249    0.0000 H   0  0  0  0  0  0  0  0  0  0  0  0
   14.2628   -0.7249    0.0000 H   0  0  0  0  0  0  0  0  0  0  0  0
   15.0598   -0.7249    0.0000 H   0  0  0  0  0  0  0  0  0  0  0  0
   10.7297    0.7249    0.0000 H   0  0  0  0  0  0  0  0  0  0  0  0
    9.9326    0.7249    0.0000 H   0  0  0  0  0  0  0  0  0  0  0  0
   12.4617    0.7249    0.0000 H   0  0  0  0  0  0  0  0  0  0  0  0
   11.6647    0.7249    0.0000 H   0  0  0  0  0  0  0  0  0  0  0  0
    5.6025   -0.7249    0.0000 H   0  0  0  0  0  0  0  0  0  0  0  0
    6.3996   -0.7249    0.0000 H   0  0  0  0  0  0  0  0  0  0  0  0
   15.9258    0.7249    0.0000 H   0  0  0  0  0  0  0  0  0  0  0  0
   15.1288    0.7249    0.0000 H   0  0  0  0  0  0  0  0  0  0  0  0
    5.5335    0.7249    0.0000 H   0  0  0  0  0  0  0  0  0  0  0  0
    4.7365    0.7249    0.0000 H   0  0  0  0  0  0  0  0  0  0  0  0
   15.9948   -0.7249    0.0000 H   0  0  0  0  0  0  0  0  0  0  0  0
   16.7919   -0.7249    0.0000 H   0  0  0  0  0  0  0  0  0  0  0  0
    3.8705   -0.7249    0.0000 H   0  0  0  0  0  0  0  0  0  0  0  0
    4.6675   -0.7249    0.0000 H   0  0  0  0  0  0  0  0  0  0  0  0
   17.6579    0.7249    0.0000 H   0  0  0  0  0  0  0  0  0  0  0  0
   16.8608    0.7249    0.0000 H   0  0  0  0  0  0  0  0  0  0  0  0
    2.0000    0.0600    0.0000 H   0  0  0  0  0  0  0  0  0  0  0  0
   19.5284   -0.0600    0.0000 H   0  0  0  0  0  0  0  0  0  0  0  0
  1 17  2  0  0  0  0
  2 22  1  0  0  0  0
  2 54  1  0  0  0  0
  3 23  1  0  0  0  0
  3 55  1  0  0  0  0
  4 22  2  0  0  0  0
  5 23  2  0  0  0  0
  6  7  1  0  0  0  0
  6  8  1  0  0  0  0
  6 24  1  0  0  0  0
  6 25  1  0  0  0  0
  7  9  1  0  0  0  0
  7 26  1  0  0  0  0
  7 27  1  0  0  0  0
  8 12  1  0  0  0  0
  8 28  1  0  0  0  0
  8 29  1  0  0  0  0
  9 15  1  0  0  0  0
  9 30  1  0  0  0  0
  9 31  1  0  0  0  0
 10 11  1  0  0  0  0
 10 13  1  0  0  0  0
 10 32  1  0  0  0  0
 10 33  1  0  0  0  0
 11 14  1  0  0  0  0
 11 34  1  0  0  0  0
 11 35  1  0  0  0  0
 12 17  1  0  0  0  0
 12 38  1  0  0  0  0
 12 39  1  0  0  0  0
 13 16  1  0  0  0  0
 13 36  1  0  0  0  0
 13 37  1  0  0  0  0
 14 17  1  0  0  0  0
 14 40  1  0  0  0  0
 14 41  1  0  0  0  0
 15 18  1  0  0  0  0
 15 42  1  0  0  0  0
 15 43  1  0  0  0  0
 16 19  1  0  0  0  0
 16 44  1  0  0  0  0
 16 45  1  0  0  0  0
 18 20  1  0  0  0  0
 18 46  1  0  0  0  0
 18 47  1  0  0  0  0
 19 21  1  0  0  0  0
 19 48  1  0  0  0  0
 19 49  1  0  0  0  0
 20 22  1  0  0  0  0
 20 50  1  0  0  0  0
 20 51  1  0  0  0  0
 21 23  1  0  0  0  0
 21 52  1  0  0  0  0
 21 53  1  0  0  0  0
M  END
> <PUBCHEM_COMPOUND_CID>
101017456

> <PUBCHEM_COMPOUND_CANONICALIZED>
1

> <PUBCHEM_CACTVS_COMPLEXITY>
338

> <PUBCHEM_CACTVS_HBOND_ACCEPTOR>
5

> <PUBCHEM_CACTVS_HBOND_DONOR>
2

> <PUBCHEM_CACTVS_ROTATABLE_BOND>
17

> <PUBCHEM_CACTVS_SUBSKEYS>
AAADcfB4OAAAAAAAAAAAAAAAAAAAAAAAAAAAAAAAAAAAAAAAAAAAGgAACAAACASAgAAACAAAAgAIAICQCAAAAAAAAAAAAAEAAAAAABIAAAAAQAAEAAAAAAGIyKCAAAAAAAAAAAAAAAAAAAAAAAAAAAAAAA==

> <PUBCHEM_IUPAC_OPENEYE_NAME>
9-oxooctadecanedioic acid

> <PUBCHEM_IUPAC_CAS_NAME>
9-oxooctadecanedioic acid

> <PUBCHEM_IUPAC_NAME_MARKUP>
9-oxooctadecanedioic acid

> <PUBCHEM_IUPAC_NAME>
9-oxooctadecanedioic acid

> <PUBCHEM_IUPAC_SYSTEMATIC_NAME>
9-oxidanylideneoctadecanedioic acid

> <PUBCHEM_IUPAC_TRADITIONAL_NAME>
9-ketooctadecanedioic acid

> <PUBCHEM_IUPAC_INCHI>
InChI=1S/C18H32O5/c19-16(13-9-5-3-7-11-15-18(22)23)12-8-4-1-2-6-10-14-17(20)21/h1-15H2,(H,20,21)(H,22,23)

> <PUBCHEM_IUPAC_INCHIKEY>
FFHGDHKUQHSECY-UHFFFAOYSA-N

> <PUBCHEM_XLOGP3_AA>
4

> <PUBCHEM_EXACT_MASS>
328.22497412

> <PUBCHEM_MOLECULAR_FORMULA>
C18H32O5

> <PUBCHEM_MOLECULAR_WEIGHT>
328.4

> <PUBCHEM_OPENEYE_CAN_SMILES>
C(CCCCC(=O)O)CCCC(=O)CCCCCCCC(=O)O

> <PUBCHEM_OPENEYE_ISO_SMILES>
C(CCCCC(=O)O)CCCC(=O)CCCCCCCC(=O)O

> <PUBCHEM_CACTVS_TPSA>
91.7

> <PUBCHEM_MONOISOTOPIC_WEIGHT>
328.22497412

> <PUBCHEM_TOTAL_CHARGE>
0

> <PUBCHEM_HEAVY_ATOM_COUNT>
23

> <PUBCHEM_ATOM_DEF_STEREO_COUNT>
0

> <PUBCHEM_ATOM_UDEF_STEREO_COUNT>
0

> <PUBCHEM_BOND_DEF_STEREO_COUNT>
0

> <PUBCHEM_BOND_UDEF_STEREO_COUNT>
0

> <PUBCHEM_ISOTOPIC_ATOM_COUNT>
0

> <PUBCHEM_COMPONENT_COUNT>
1

> <PUBCHEM_CACTVS_TAUTO_COUNT>
-1

> <PUBCHEM_COORDINATE_TYPE>
1
5
255

$$$$
