 
  -OEChem-10192104062D

 93 96  0     1  0  0  0  0  0999 V2000
   12.3923   -3.5950    0.0000 O   0  0  0  0  0  0  0  0  0  0  0  0
   11.5263   -2.0950    0.0000 O   0  0  0  0  0  0  0  0  0  0  0  0
   10.6603   -3.5950    0.0000 O   0  0  0  0  0  0  0  0  0  0  0  0
   14.1244   -2.5950    0.0000 O   0  0  0  0  0  0  0  0  0  0  0  0
   12.3923   -5.5950    0.0000 O   0  0  0  0  0  0  0  0  0  0  0  0
   14.1244   -0.5950    0.0000 O   0  0  0  0  0  0  0  0  0  0  0  0
   10.6603   -6.5950    0.0000 O   0  0  0  0  0  0  0  0  0  0  0  0
   12.3923    0.4050    0.0000 O   0  0  0  0  0  0  0  0  0  0  0  0
    8.9282   -5.5950    0.0000 O   0  0  0  0  0  0  0  0  0  0  0  0
   10.6603    0.4050    0.0000 O   0  0  0  0  0  0  0  0  0  0  0  0
    8.0622   -4.0950    0.0000 O   0  0  0  0  0  0  0  0  0  0  0  0
    8.9282    0.4050    0.0000 O   0  0  0  0  0  0  0  0  0  0  0  0
    7.1962   -2.5950    0.0000 O   0  0  0  0  0  0  0  0  0  0  0  0
   10.6603    5.4050    0.0000 O   0  0  0  0  0  0  0  0  0  0  0  0
    2.0000   -3.5950    0.0000 O   0  0  0  0  0  0  0  0  0  0  0  0
    8.9282    6.4050    0.0000 O   0  0  0  0  0  0  0  0  0  0  0  0
    2.0000   -5.5950    0.0000 O   0  0  0  0  0  0  0  0  0  0  0  0
   12.3923   -2.5950    0.0000 C   0  0  1  0  0  0  0  0  0  0  0  0
   11.5263   -4.0950    0.0000 C   0  0  1  0  0  0  0  0  0  0  0  0
   13.2583   -2.0950    0.0000 C   0  0  1  0  0  0  0  0  0  0  0  0
   11.5263   -5.0950    0.0000 C   0  0  1  0  0  0  0  0  0  0  0  0
   13.2583   -1.0950    0.0000 C   0  0  2  0  0  0  0  0  0  0  0  0
   10.6603   -5.5950    0.0000 C   0  0  2  0  0  0  0  0  0  0  0  0
   12.3923   -0.5950    0.0000 C   0  0  1  0  0  0  0  0  0  0  0  0
    9.7942   -5.0950    0.0000 C   0  0  1  0  0  0  0  0  0  0  0  0
   11.5263   -1.0950    0.0000 C   0  0  1  0  0  0  0  0  0  0  0  0
    9.7942   -4.0950    0.0000 C   0  0  1  0  0  0  0  0  0  0  0  0
   10.6603   -0.5950    0.0000 C   0  0  0  0  0  0  0  0  0  0  0  0
    8.9282   -3.5950    0.0000 C   0  0  0  0  0  0  0  0  0  0  0  0
    9.7942    0.9050    0.0000 C   0  0  0  0  0  0  0  0  0  0  0  0
    7.1962   -3.5950    0.0000 C   0  0  0  0  0  0  0  0  0  0  0  0
    9.7942    1.9050    0.0000 C   0  0  0  0  0  0  0  0  0  0  0  0
    6.3301   -4.0950    0.0000 C   0  0  0  0  0  0  0  0  0  0  0  0
    8.9282    2.4050    0.0000 C   0  0  0  0  0  0  0  0  0  0  0  0
    5.4641   -3.5950    0.0000 C   0  0  0  0  0  0  0  0  0  0  0  0
    8.9282    3.4050    0.0000 C   0  0  0  0  0  0  0  0  0  0  0  0
    4.5981   -4.0950    0.0000 C   0  0  0  0  0  0  0  0  0  0  0  0
    9.7942    3.9050    0.0000 C   0  0  0  0  0  0  0  0  0  0  0  0
    3.7320   -3.5950    0.0000 C   0  0  0  0  0  0  0  0  0  0  0  0
    8.0622    3.9050    0.0000 C   0  0  0  0  0  0  0  0  0  0  0  0
    4.5981   -5.0950    0.0000 C   0  0  0  0  0  0  0  0  0  0  0  0
    9.7942    4.9050    0.0000 C   0  0  0  0  0  0  0  0  0  0  0  0
    2.8660   -4.0950    0.0000 C   0  0  0  0  0  0  0  0  0  0  0  0
    8.0622    4.9050    0.0000 C   0  0  0  0  0  0  0  0  0  0  0  0
    3.7320   -5.5950    0.0000 C   0  0  0  0  0  0  0  0  0  0  0  0
    8.9282    5.4050    0.0000 C   0  0  0  0  0  0  0  0  0  0  0  0
    2.8660   -5.0950    0.0000 C   0  0  0  0  0  0  0  0  0  0  0  0
   10.6603    6.4050    0.0000 C   0  0  0  0  0  0  0  0  0  0  0  0
    2.0000   -2.5950    0.0000 C   0  0  0  0  0  0  0  0  0  0  0  0
    8.0622    6.9050    0.0000 C   0  0  0  0  0  0  0  0  0  0  0  0
    2.0000   -6.5950    0.0000 C   0  0  0  0  0  0  0  0  0  0  0  0
   12.9292   -2.9050    0.0000 H   0  0  0  0  0  0  0  0  0  0  0  0
   11.5263   -3.4750    0.0000 H   0  0  0  0  0  0  0  0  0  0  0  0
   13.7953   -1.7850    0.0000 H   0  0  0  0  0  0  0  0  0  0  0  0
   11.5263   -5.7150    0.0000 H   0  0  0  0  0  0  0  0  0  0  0  0
   13.2583   -0.4750    0.0000 H   0  0  0  0  0  0  0  0  0  0  0  0
   10.1233   -5.9050    0.0000 H   0  0  0  0  0  0  0  0  0  0  0  0
   12.9292   -0.2850    0.0000 H   0  0  0  0  0  0  0  0  0  0  0  0
    9.2573   -4.7850    0.0000 H   0  0  0  0  0  0  0  0  0  0  0  0
   10.9893   -1.4050    0.0000 H   0  0  0  0  0  0  0  0  0  0  0  0
    9.7942   -3.4750    0.0000 H   0  0  0  0  0  0  0  0  0  0  0  0
   10.0497   -0.4873    0.0000 H   0  0  0  0  0  0  0  0  0  0  0  0
   10.4482   -1.1776    0.0000 H   0  0  0  0  0  0  0  0  0  0  0  0
    9.3267   -3.1200    0.0000 H   0  0  0  0  0  0  0  0  0  0  0  0
    8.5297   -3.1200    0.0000 H   0  0  0  0  0  0  0  0  0  0  0  0
   14.6613   -2.2850    0.0000 H   0  0  0  0  0  0  0  0  0  0  0  0
   12.3923   -6.2150    0.0000 H   0  0  0  0  0  0  0  0  0  0  0  0
   14.1244    0.0250    0.0000 H   0  0  0  0  0  0  0  0  0  0  0  0
   10.1233   -6.9050    0.0000 H   0  0  0  0  0  0  0  0  0  0  0  0
   12.9292    0.7150    0.0000 H   0  0  0  0  0  0  0  0  0  0  0  0
    8.9282   -6.2150    0.0000 H   0  0  0  0  0  0  0  0  0  0  0  0
   10.3312    2.2150    0.0000 H   0  0  0  0  0  0  0  0  0  0  0  0
    6.3301   -4.7150    0.0000 H   0  0  0  0  0  0  0  0  0  0  0  0
    8.3913    2.0950    0.0000 H   0  0  0  0  0  0  0  0  0  0  0  0
    5.4641   -2.9750    0.0000 H   0  0  0  0  0  0  0  0  0  0  0  0
   10.3312    3.5950    0.0000 H   0  0  0  0  0  0  0  0  0  0  0  0
    3.7320   -2.9750    0.0000 H   0  0  0  0  0  0  0  0  0  0  0  0
    7.5252    3.5950    0.0000 H   0  0  0  0  0  0  0  0  0  0  0  0
    5.1350   -5.4050    0.0000 H   0  0  0  0  0  0  0  0  0  0  0  0
    7.5252    5.2150    0.0000 H   0  0  0  0  0  0  0  0  0  0  0  0
    3.7320   -6.2150    0.0000 H   0  0  0  0  0  0  0  0  0  0  0  0
   11.2803    6.4050    0.0000 H   0  0  0  0  0  0  0  0  0  0  0  0
   10.6603    7.0250    0.0000 H   0  0  0  0  0  0  0  0  0  0  0  0
   10.0403    6.4050    0.0000 H   0  0  0  0  0  0  0  0  0  0  0  0
    2.6200   -2.5950    0.0000 H   0  0  0  0  0  0  0  0  0  0  0  0
    2.0000   -1.9750    0.0000 H   0  0  0  0  0  0  0  0  0  0  0  0
    1.3800   -2.5950    0.0000 H   0  0  0  0  0  0  0  0  0  0  0  0
    8.3722    7.4419    0.0000 H   0  0  0  0  0  0  0  0  0  0  0  0
    7.5252    7.2150    0.0000 H   0  0  0  0  0  0  0  0  0  0  0  0
    7.7522    6.3681    0.0000 H   0  0  0  0  0  0  0  0  0  0  0  0
    1.3800   -6.5950    0.0000 H   0  0  0  0  0  0  0  0  0  0  0  0
    2.0000   -7.2150    0.0000 H   0  0  0  0  0  0  0  0  0  0  0  0
    2.6200   -6.5950    0.0000 H   0  0  0  0  0  0  0  0  0  0  0  0
 18  1  1  1  0  0  0
 19  1  1  6  0  0  0
  2 18  1  0  0  0  0
  2 26  1  0  0  0  0
  3 19  1  0  0  0  0
  3 27  1  0  0  0  0
 20  4  1  1  0  0  0
  4 66  1  0  0  0  0
 21  5  1  6  0  0  0
  5 67  1  0  0  0  0
 22  6  1  6  0  0  0
  6 68  1  0  0  0  0
 23  7  1  1  0  0  0
  7 69  1  0  0  0  0
 24  8  1  1  0  0  0
  8 70  1  0  0  0  0
 25  9  1  6  0  0  0
  9 71  1  0  0  0  0
 10 28  1  0  0  0  0
 10 30  1  0  0  0  0
 11 29  1  0  0  0  0
 11 31  1  0  0  0  0
 12 30  2  0  0  0  0
 13 31  2  0  0  0  0
 14 42  1  0  0  0  0
 14 48  1  0  0  0  0
 15 43  1  0  0  0  0
 15 49  1  0  0  0  0
 16 46  1  0  0  0  0
 16 50  1  0  0  0  0
 17 47  1  0  0  0  0
 17 51  1  0  0  0  0
 18 20  1  0  0  0  0
 18 52  1  0  0  0  0
 19 21  1  0  0  0  0
 19 53  1  0  0  0  0
 20 22  1  0  0  0  0
 20 54  1  0  0  0  0
 21 23  1  0  0  0  0
 21 55  1  0  0  0  0
 22 24  1  0  0  0  0
 22 56  1  0  0  0  0
 23 25  1  0  0  0  0
 23 57  1  0  0  0  0
 24 26  1  0  0  0  0
 24 58  1  0  0  0  0
 25 27  1  0  0  0  0
 25 59  1  0  0  0  0
 26 28  1  6  0  0  0
 26 60  1  0  0  0  0
 27 29  1  1  0  0  0
 27 61  1  0  0  0  0
 28 62  1  0  0  0  0
 28 63  1  0  0  0  0
 29 64  1  0  0  0  0
 29 65  1  0  0  0  0
 30 32  1  0  0  0  0
 31 33  1  0  0  0  0
 32 34  2  0  0  0  0
 32 72  1  0  0  0  0
 33 35  2  0  0  0  0
 33 73  1  0  0  0  0
 34 36  1  0  0  0  0
 34 74  1  0  0  0  0
 35 37  1  0  0  0  0
 35 75  1  0  0  0  0
 36 38  2  0  0  0  0
 36 40  1  0  0  0  0
 37 39  2  0  0  0  0
 37 41  1  0  0  0  0
 38 42  1  0  0  0  0
 38 76  1  0  0  0  0
 39 43  1  0  0  0  0
 39 77  1  0  0  0  0
 40 44  2  0  0  0  0
 40 78  1  0  0  0  0
 41 45  2  0  0  0  0
 41 79  1  0  0  0  0
 42 46  2  0  0  0  0
 43 47  2  0  0  0  0
 44 46  1  0  0  0  0
 44 80  1  0  0  0  0
 45 47  1  0  0  0  0
 45 81  1  0  0  0  0
 48 82  1  0  0  0  0
 48 83  1  0  0  0  0
 48 84  1  0  0  0  0
 49 85  1  0  0  0  0
 49 86  1  0  0  0  0
 49 87  1  0  0  0  0
 50 88  1  0  0  0  0
 50 89  1  0  0  0  0
 50 90  1  0  0  0  0
 51 91  1  0  0  0  0
 51 92  1  0  0  0  0
 51 93  1  0  0  0  0
M  END
> <PUBCHEM_COMPOUND_CID>
72696439

> <PUBCHEM_COMPOUND_CANONICALIZED>
1

> <PUBCHEM_CACTVS_COMPLEXITY>
1070

> <PUBCHEM_CACTVS_HBOND_ACCEPTOR>
17

> <PUBCHEM_CACTVS_HBOND_DONOR>
6

> <PUBCHEM_CACTVS_ROTATABLE_BOND>
16

> <PUBCHEM_CACTVS_SUBSKEYS>
AAADcfB8PgAAAAAAAAAAAAAAAAAAAAAAAAA0aIEAAAAAAAABQAAAGgAACAAADBSwmAMyDoAABgCIAiDSCAACCAAgIAAIiAAGiMgdNiKEMRqicCIlwBEPqYfA4BwOIAABAAAAQABAAAIAAACAAAAAAAAAAA==

> <PUBCHEM_IUPAC_OPENEYE_NAME>
[(2R,3S,4S,5R,6R)-6-[(2R,3R,4S,5S,6R)-6-[[(E)-3-(3,4-dimethoxyphenyl)prop-2-enoyl]oxymethyl]-3,4,5-trihydroxy-tetrahydropyran-2-yl]oxy-3,4,5-trihydroxy-tetrahydropyran-2-yl]methyl (E)-3-(3,4-dimethoxyphenyl)prop-2-enoate

> <PUBCHEM_IUPAC_CAS_NAME>
(E)-3-(3,4-dimethoxyphenyl)-2-propenoic acid [(2R,3S,4S,5R,6R)-6-[[(2R,3R,4S,5S,6R)-6-[[(E)-3-(3,4-dimethoxyphenyl)-1-oxoprop-2-enoxy]methyl]-3,4,5-trihydroxy-2-oxanyl]oxy]-3,4,5-trihydroxy-2-oxanyl]methyl ester

> <PUBCHEM_IUPAC_NAME_MARKUP>
[(2<I>R</I>,3<I>S</I>,4<I>S</I>,5<I>R</I>,6<I>R</I>)-6-[(2<I>R</I>,3<I>R</I>,4<I>S</I>,5<I>S</I>,6<I>R</I>)-6-[[(<I>E</I>)-3-(3,4-dimethoxyphenyl)prop-2-enoyl]oxymethyl]-3,4,5-trihydroxyoxan-2-yl]oxy-3,4,5-trihydroxyoxan-2-yl]methyl (<I>E</I>)-3-(3,4-dimethoxyphenyl)prop-2-enoate

> <PUBCHEM_IUPAC_NAME>
[(2R,3S,4S,5R,6R)-6-[(2R,3R,4S,5S,6R)-6-[[(E)-3-(3,4-dimethoxyphenyl)prop-2-enoyl]oxymethyl]-3,4,5-trihydroxyoxan-2-yl]oxy-3,4,5-trihydroxyoxan-2-yl]methyl (E)-3-(3,4-dimethoxyphenyl)prop-2-enoate

> <PUBCHEM_IUPAC_SYSTEMATIC_NAME>
[(2R,3S,4S,5R,6R)-6-[(2R,3R,4S,5S,6R)-6-[[(E)-3-(3,4-dimethoxyphenyl)prop-2-enoyl]oxymethyl]-3,4,5-tris(oxidanyl)oxan-2-yl]oxy-3,4,5-tris(oxidanyl)oxan-2-yl]methyl (E)-3-(3,4-dimethoxyphenyl)prop-2-enoate

> <PUBCHEM_IUPAC_TRADITIONAL_NAME>
(E)-3-(3,4-dimethoxyphenyl)acrylic acid [(2R,3S,4S,5R,6R)-6-[(2R,3R,4S,5S,6R)-6-[[(E)-3-(3,4-dimethoxyphenyl)acryloyl]oxymethyl]-3,4,5-trihydroxy-tetrahydropyran-2-yl]oxy-3,4,5-trihydroxy-tetrahydropyran-2-yl]methyl ester

> <PUBCHEM_IUPAC_INCHI>
InChI=1S/C34H42O17/c1-43-19-9-5-17(13-21(19)45-3)7-11-25(35)47-15-23-27(37)29(39)31(41)33(49-23)51-34-32(42)30(40)28(38)24(50-34)16-48-26(36)12-8-18-6-10-20(44-2)22(14-18)46-4/h5-14,23-24,27-34,37-42H,15-16H2,1-4H3/b11-7+,12-8+/t23-,24-,27-,28-,29+,30+,31-,32-,33-,34-/m1/s1

> <PUBCHEM_IUPAC_INCHIKEY>
YIAZDJHQRNSVEJ-GXXSFGQDSA-N

> <PUBCHEM_XLOGP3_AA>
-0.1

> <PUBCHEM_EXACT_MASS>
722.24219987

> <PUBCHEM_MOLECULAR_FORMULA>
C34H42O17

> <PUBCHEM_MOLECULAR_WEIGHT>
722.7

> <PUBCHEM_OPENEYE_CAN_SMILES>
COC1=C(C=C(C=C1)C=CC(=O)OCC2C(C(C(C(O2)OC3C(C(C(C(O3)COC(=O)C=CC4=CC(=C(C=C4)OC)OC)O)O)O)O)O)O)OC

> <PUBCHEM_OPENEYE_ISO_SMILES>
COC1=C(C=C(C=C1)/C=C/C(=O)OC[C@H]2O[C@@H]([C@@H]([C@H]([C@@H]2O)O)O)O[C@H]3O[C@@H]([C@H]([C@@H]([C@H]3O)O)O)COC(=O)/C=C/C4=CC(=C(C=C4)OC)OC)OC

> <PUBCHEM_CACTVS_TPSA>
239

> <PUBCHEM_MONOISOTOPIC_WEIGHT>
722.24219987

> <PUBCHEM_TOTAL_CHARGE>
0

> <PUBCHEM_HEAVY_ATOM_COUNT>
51

> <PUBCHEM_ATOM_DEF_STEREO_COUNT>
10

> <PUBCHEM_ATOM_UDEF_STEREO_COUNT>
0

> <PUBCHEM_BOND_DEF_STEREO_COUNT>
2

> <PUBCHEM_BOND_UDEF_STEREO_COUNT>
0

> <PUBCHEM_ISOTOPIC_ATOM_COUNT>
0

> <PUBCHEM_COMPONENT_COUNT>
1

> <PUBCHEM_CACTVS_TAUTO_COUNT>
-1

> <PUBCHEM_COORDINATE_TYPE>
1
5
255

> <PUBCHEM_BONDANNOTATIONS>
18  1  5
19  1  6
26  28  6
27  29  5
36  38  8
36  40  8
37  39  8
37  41  8
38  42  8
39  43  8
20  4  5
40  44  8
41  45  8
42  46  8
43  47  8
44  46  8
45  47  8
21  5  6
22  6  6
23  7  5
24  8  5
25  9  6

$$$$
