 
  -OEChem-10192103452D

 61 64  0     1  0  0  0  0  0999 V2000
    5.4836   -0.7402    0.0000 O   0  0  0  0  0  0  0  0  0  0  0  0
    5.6527   -2.3494    0.0000 O   0  0  0  0  0  0  0  0  0  0  0  0
    6.9970    0.6992    0.0000 O   0  0  0  0  0  0  0  0  0  0  0  0
    8.2983   -1.9426    0.0000 O   0  0  0  0  0  0  0  0  0  0  0  0
    6.3732    3.6336    0.0000 O   0  0  0  0  0  0  0  0  0  0  0  0
   10.8964   -0.4426    0.0000 O   0  0  0  0  0  0  0  0  0  0  0  0
    5.8380    1.9863    0.0000 O   0  0  0  0  0  0  0  0  0  0  0  0
    9.1643   -0.4426    0.0000 O   0  0  0  0  0  0  0  0  0  0  0  0
    6.4617   -0.9481    0.0000 C   0  0  2  0  0  0  0  0  0  0  0  0
    6.5662   -1.9426    0.0000 C   0  0  2  0  0  0  0  0  0  0  0  0
    4.9836   -1.6062    0.0000 C   0  0  0  0  0  0  0  0  0  0  0  0
    7.2049   -0.2790    0.0000 C   0  0  0  0  0  0  0  0  0  0  0  0
    7.4323   -2.4426    0.0000 C   0  0  0  0  0  0  0  0  0  0  0  0
    3.9890   -1.7108    0.0000 C   0  0  0  0  0  0  0  0  0  0  0  0
    3.4013   -0.9017    0.0000 C   0  0  0  0  0  0  0  0  0  0  0  0
    3.5823   -2.6243    0.0000 C   0  0  0  0  0  0  0  0  0  0  0  0
    7.7401    1.3683    0.0000 C   0  0  0  0  0  0  0  0  0  0  0  0
    9.1643   -2.4426    0.0000 C   0  0  0  0  0  0  0  0  0  0  0  0
    2.4067   -1.0063    0.0000 C   0  0  0  0  0  0  0  0  0  0  0  0
    2.5878   -2.7288    0.0000 C   0  0  0  0  0  0  0  0  0  0  0  0
    2.0000   -1.9198    0.0000 C   0  0  0  0  0  0  0  0  0  0  0  0
    7.5322    2.3464    0.0000 C   0  0  0  0  0  0  0  0  0  0  0  0
   10.0303   -1.9426    0.0000 C   0  0  0  0  0  0  0  0  0  0  0  0
    8.6912    1.0593    0.0000 C   0  0  0  0  0  0  0  0  0  0  0  0
    9.1643   -3.4426    0.0000 C   0  0  0  0  0  0  0  0  0  0  0  0
    8.2753    3.0156    0.0000 C   0  0  0  0  0  0  0  0  0  0  0  0
   10.8964   -2.4426    0.0000 C   0  0  0  0  0  0  0  0  0  0  0  0
    9.4343    1.7284    0.0000 C   0  0  0  0  0  0  0  0  0  0  0  0
   10.0303   -3.9426    0.0000 C   0  0  0  0  0  0  0  0  0  0  0  0
    9.2264    2.7066    0.0000 C   0  0  0  0  0  0  0  0  0  0  0  0
   10.8964   -3.4426    0.0000 C   0  0  0  0  0  0  0  0  0  0  0  0
    6.5811    2.6555    0.0000 C   0  0  0  0  0  0  0  0  0  0  0  0
   10.0303   -0.9426    0.0000 C   0  0  0  0  0  0  0  0  0  0  0  0
    5.4222    3.9426    0.0000 C   0  0  0  0  0  0  0  0  0  0  0  0
   10.8964    0.5574    0.0000 C   0  0  0  0  0  0  0  0  0  0  0  0
    6.3012   -0.3492    0.0000 H   0  0  0  0  0  0  0  0  0  0  0  0
    6.5338   -2.5618    0.0000 H   0  0  0  0  0  0  0  0  0  0  0  0
    4.6459   -1.0862    0.0000 H   0  0  0  0  0  0  0  0  0  0  0  0
    7.5334   -0.8048    0.0000 H   0  0  0  0  0  0  0  0  0  0  0  0
    7.7797   -0.0467    0.0000 H   0  0  0  0  0  0  0  0  0  0  0  0
    7.0337   -2.9176    0.0000 H   0  0  0  0  0  0  0  0  0  0  0  0
    7.8308   -2.9176    0.0000 H   0  0  0  0  0  0  0  0  0  0  0  0
    3.6534   -0.3353    0.0000 H   0  0  0  0  0  0  0  0  0  0  0  0
    3.9467   -3.1259    0.0000 H   0  0  0  0  0  0  0  0  0  0  0  0
    2.0423   -0.5047    0.0000 H   0  0  0  0  0  0  0  0  0  0  0  0
    2.3356   -3.2952    0.0000 H   0  0  0  0  0  0  0  0  0  0  0  0
    1.3834   -1.9846    0.0000 H   0  0  0  0  0  0  0  0  0  0  0  0
    8.8200    0.4528    0.0000 H   0  0  0  0  0  0  0  0  0  0  0  0
    8.6274   -3.7526    0.0000 H   0  0  0  0  0  0  0  0  0  0  0  0
    8.1464    3.6220    0.0000 H   0  0  0  0  0  0  0  0  0  0  0  0
   11.4333   -2.1326    0.0000 H   0  0  0  0  0  0  0  0  0  0  0  0
   10.0239    1.5368    0.0000 H   0  0  0  0  0  0  0  0  0  0  0  0
   10.0303   -4.5626    0.0000 H   0  0  0  0  0  0  0  0  0  0  0  0
    9.6871    3.1214    0.0000 H   0  0  0  0  0  0  0  0  0  0  0  0
   11.4333   -3.7526    0.0000 H   0  0  0  0  0  0  0  0  0  0  0  0
    5.6137    4.5323    0.0000 H   0  0  0  0  0  0  0  0  0  0  0  0
    4.8325    4.1342    0.0000 H   0  0  0  0  0  0  0  0  0  0  0  0
    5.2306    3.3530    0.0000 H   0  0  0  0  0  0  0  0  0  0  0  0
   11.5164    0.5574    0.0000 H   0  0  0  0  0  0  0  0  0  0  0  0
   10.8964    1.1774    0.0000 H   0  0  0  0  0  0  0  0  0  0  0  0
   10.2764    0.5574    0.0000 H   0  0  0  0  0  0  0  0  0  0  0  0
  1  9  1  0  0  0  0
  1 11  1  0  0  0  0
  2 10  1  0  0  0  0
  2 11  1  0  0  0  0
  3 12  1  0  0  0  0
  3 17  1  0  0  0  0
  4 13  1  0  0  0  0
  4 18  1  0  0  0  0
  5 32  1  0  0  0  0
  5 34  1  0  0  0  0
  6 33  1  0  0  0  0
  6 35  1  0  0  0  0
  7 32  2  0  0  0  0
  8 33  2  0  0  0  0
  9 10  1  0  0  0  0
  9 12  1  1  0  0  0
  9 36  1  0  0  0  0
 10 13  1  6  0  0  0
 10 37  1  0  0  0  0
 11 14  1  0  0  0  0
 11 38  1  0  0  0  0
 12 39  1  0  0  0  0
 12 40  1  0  0  0  0
 13 41  1  0  0  0  0
 13 42  1  0  0  0  0
 14 15  2  0  0  0  0
 14 16  1  0  0  0  0
 15 19  1  0  0  0  0
 15 43  1  0  0  0  0
 16 20  2  0  0  0  0
 16 44  1  0  0  0  0
 17 22  1  0  0  0  0
 17 24  2  0  0  0  0
 18 23  1  0  0  0  0
 18 25  2  0  0  0  0
 19 21  2  0  0  0  0
 19 45  1  0  0  0  0
 20 21  1  0  0  0  0
 20 46  1  0  0  0  0
 21 47  1  0  0  0  0
 22 26  2  0  0  0  0
 22 32  1  0  0  0  0
 23 27  2  0  0  0  0
 23 33  1  0  0  0  0
 24 28  1  0  0  0  0
 24 48  1  0  0  0  0
 25 29  1  0  0  0  0
 25 49  1  0  0  0  0
 26 30  1  0  0  0  0
 26 50  1  0  0  0  0
 27 31  1  0  0  0  0
 27 51  1  0  0  0  0
 28 30  2  0  0  0  0
 28 52  1  0  0  0  0
 29 31  2  0  0  0  0
 29 53  1  0  0  0  0
 30 54  1  0  0  0  0
 31 55  1  0  0  0  0
 34 56  1  0  0  0  0
 34 57  1  0  0  0  0
 34 58  1  0  0  0  0
 35 59  1  0  0  0  0
 35 60  1  0  0  0  0
 35 61  1  0  0  0  0
M  END
> <PUBCHEM_COMPOUND_CID>
101947400

> <PUBCHEM_COMPOUND_CANONICALIZED>
1

> <PUBCHEM_CACTVS_COMPLEXITY>
630

> <PUBCHEM_CACTVS_HBOND_ACCEPTOR>
8

> <PUBCHEM_CACTVS_HBOND_DONOR>
0

> <PUBCHEM_CACTVS_ROTATABLE_BOND>
11

> <PUBCHEM_CACTVS_SUBSKEYS>
AAADceB4PAAAAAAAAAAAAAAAAAAAASAAAAAwYMAAAAAAAAABUAAAGgAAAAAADBSwmAMyDoAABACIAiDSCAACCAAkIAAIiAEGCMgdJzaENRqiOWCl4BEOqYfIyCCOAAAAAAAIAAAAAAAAABAAAAAAAAAAAA==

> <PUBCHEM_IUPAC_OPENEYE_NAME>
methyl 2-[[(4S,5S)-5-[(2-methoxycarbonylphenoxy)methyl]-2-phenyl-1,3-dioxolan-4-yl]methoxy]benzoate

> <PUBCHEM_IUPAC_CAS_NAME>
2-[[(4S,5S)-5-[(2-methoxycarbonylphenoxy)methyl]-2-phenyl-1,3-dioxolan-4-yl]methoxy]benzoic acid methyl ester

> <PUBCHEM_IUPAC_NAME_MARKUP>
methyl 2-[[(4<I>S</I>,5<I>S</I>)-5-[(2-methoxycarbonylphenoxy)methyl]-2-phenyl-1,3-dioxolan-4-yl]methoxy]benzoate

> <PUBCHEM_IUPAC_NAME>
methyl 2-[[(4S,5S)-5-[(2-methoxycarbonylphenoxy)methyl]-2-phenyl-1,3-dioxolan-4-yl]methoxy]benzoate

> <PUBCHEM_IUPAC_SYSTEMATIC_NAME>
methyl 2-[[(4S,5S)-5-[(2-methoxycarbonylphenoxy)methyl]-2-phenyl-1,3-dioxolan-4-yl]methoxy]benzoate

> <PUBCHEM_IUPAC_TRADITIONAL_NAME>
2-[[(4S,5S)-5-[(2-carbomethoxyphenoxy)methyl]-2-phenyl-1,3-dioxolan-4-yl]methoxy]benzoic acid methyl ester

> <PUBCHEM_IUPAC_INCHI>
InChI=1S/C27H26O8/c1-30-25(28)19-12-6-8-14-21(19)32-16-23-24(35-27(34-23)18-10-4-3-5-11-18)17-33-22-15-9-7-13-20(22)26(29)31-2/h3-15,23-24,27H,16-17H2,1-2H3/t23-,24-/m0/s1

> <PUBCHEM_IUPAC_INCHIKEY>
RJLHJUBBURTEPL-ZEQRLZLVSA-N

> <PUBCHEM_XLOGP3_AA>
4.5

> <PUBCHEM_EXACT_MASS>
478.16276778

> <PUBCHEM_MOLECULAR_FORMULA>
C27H26O8

> <PUBCHEM_MOLECULAR_WEIGHT>
478.5

> <PUBCHEM_OPENEYE_CAN_SMILES>
COC(=O)C1=CC=CC=C1OCC2C(OC(O2)C3=CC=CC=C3)COC4=CC=CC=C4C(=O)OC

> <PUBCHEM_OPENEYE_ISO_SMILES>
COC(=O)C1=CC=CC=C1OC[C@H]2[C@@H](OC(O2)C3=CC=CC=C3)COC4=CC=CC=C4C(=O)OC

> <PUBCHEM_CACTVS_TPSA>
89.5

> <PUBCHEM_MONOISOTOPIC_WEIGHT>
478.16276778

> <PUBCHEM_TOTAL_CHARGE>
0

> <PUBCHEM_HEAVY_ATOM_COUNT>
35

> <PUBCHEM_ATOM_DEF_STEREO_COUNT>
2

> <PUBCHEM_ATOM_UDEF_STEREO_COUNT>
0

> <PUBCHEM_BOND_DEF_STEREO_COUNT>
0

> <PUBCHEM_BOND_UDEF_STEREO_COUNT>
0

> <PUBCHEM_ISOTOPIC_ATOM_COUNT>
0

> <PUBCHEM_COMPONENT_COUNT>
1

> <PUBCHEM_CACTVS_TAUTO_COUNT>
-1

> <PUBCHEM_COORDINATE_TYPE>
1
5
255

> <PUBCHEM_BONDANNOTATIONS>
10  13  6
14  15  8
14  16  8
15  19  8
16  20  8
17  22  8
17  24  8
18  23  8
18  25  8
19  21  8
20  21  8
22  26  8
23  27  8
24  28  8
25  29  8
26  30  8
27  31  8
28  30  8
29  31  8
9  12  5

$$$$
