 
  -OEChem-10192104092D

 57 59  0     1  0  0  0  0  0999 V2000
    7.7331    1.3170    0.0000 O   0  0  0  0  0  0  0  0  0  0  0  0
    6.3671    3.6830    0.0000 O   0  0  0  0  0  0  0  0  0  0  0  0
    6.0010    1.3170    0.0000 O   0  0  0  0  0  0  0  0  0  0  0  0
    6.0010   -1.6830    0.0000 O   0  0  0  0  0  0  0  0  0  0  0  0
    9.0991    4.6830    0.0000 O   0  0  0  0  0  0  0  0  0  0  0  0
    4.2690   -1.6830    0.0000 O   0  0  0  0  0  0  0  0  0  0  0  0
    7.7331   -0.6830    0.0000 O   0  0  0  0  0  0  0  0  0  0  0  0
    4.2690   -0.6830    0.0000 O   0  0  0  0  0  0  0  0  0  0  0  0
    6.0010   -3.6830    0.0000 O   0  0  0  0  0  0  0  0  0  0  0  0
    4.2690   -4.6830    0.0000 O   0  0  0  0  0  0  0  0  0  0  0  0
    2.5369   -3.6830    0.0000 O   0  0  0  0  0  0  0  0  0  0  0  0
    4.2690    2.3170    0.0000 O   0  0  0  0  0  0  0  0  0  0  0  0
    2.5369   -0.6830    0.0000 O   0  0  0  0  0  0  0  0  0  0  0  0
    8.2331    3.1830    0.0000 C   0  0  3  0  0  0  0  0  0  0  0  0
    7.7331    2.3170    0.0000 C   0  0  3  0  0  0  0  0  0  0  0  0
    7.2331    3.1830    0.0000 C   0  0  3  0  0  0  0  0  0  0  0  0
    6.8671    0.8170    0.0000 C   0  0  3  0  0  0  0  0  0  0  0  0
    9.0991    3.6830    0.0000 C   0  0  0  0  0  0  0  0  0  0  0  0
    6.8671   -0.1830    0.0000 C   0  0  3  0  0  0  0  0  0  0  0  0
    6.0010   -0.6830    0.0000 C   0  0  3  0  0  0  0  0  0  0  0  0
    5.1350   -0.1830    0.0000 C   0  0  3  0  0  0  0  0  0  0  0  0
    5.1350    0.8170    0.0000 C   0  0  3  0  0  0  0  0  0  0  0  0
    5.1350   -2.1830    0.0000 C   0  0  3  0  0  0  0  0  0  0  0  0
    5.1350   -3.1830    0.0000 C   0  0  3  0  0  0  0  0  0  0  0  0
    4.2690   -3.6830    0.0000 C   0  0  3  0  0  0  0  0  0  0  0  0
    3.4030   -3.1830    0.0000 C   0  0  3  0  0  0  0  0  0  0  0  0
    3.4030   -2.1830    0.0000 C   0  0  3  0  0  0  0  0  0  0  0  0
    4.2690    1.3170    0.0000 C   0  0  0  0  0  0  0  0  0  0  0  0
    2.5369   -1.6830    0.0000 C   0  0  0  0  0  0  0  0  0  0  0  0
    8.6715    2.7446    0.0000 H   0  0  0  0  0  0  0  0  0  0  0  0
    7.1342    2.1565    0.0000 H   0  0  0  0  0  0  0  0  0  0  0  0
    7.3936    3.7819    0.0000 H   0  0  0  0  0  0  0  0  0  0  0  0
    7.4040    0.5070    0.0000 H   0  0  0  0  0  0  0  0  0  0  0  0
    9.3112    3.1004    0.0000 H   0  0  0  0  0  0  0  0  0  0  0  0
    9.7097    3.7907    0.0000 H   0  0  0  0  0  0  0  0  0  0  0  0
    6.8671   -0.8030    0.0000 H   0  0  0  0  0  0  0  0  0  0  0  0
    5.4641   -0.9930    0.0000 H   0  0  0  0  0  0  0  0  0  0  0  0
    4.5981    0.1270    0.0000 H   0  0  0  0  0  0  0  0  0  0  0  0
    5.1350    1.4370    0.0000 H   0  0  0  0  0  0  0  0  0  0  0  0
    6.3671    4.3030    0.0000 H   0  0  0  0  0  0  0  0  0  0  0  0
    5.1350   -1.5630    0.0000 H   0  0  0  0  0  0  0  0  0  0  0  0
    5.1350   -3.8030    0.0000 H   0  0  0  0  0  0  0  0  0  0  0  0
    3.7320   -3.9930    0.0000 H   0  0  0  0  0  0  0  0  0  0  0  0
    3.4030   -3.8030    0.0000 H   0  0  0  0  0  0  0  0  0  0  0  0
    3.4030   -1.5630    0.0000 H   0  0  0  0  0  0  0  0  0  0  0  0
    3.6584    1.4246    0.0000 H   0  0  0  0  0  0  0  0  0  0  0  0
    4.0569    0.7344    0.0000 H   0  0  0  0  0  0  0  0  0  0  0  0
    9.6360    4.9930    0.0000 H   0  0  0  0  0  0  0  0  0  0  0  0
    7.7331   -1.3030    0.0000 H   0  0  0  0  0  0  0  0  0  0  0  0
    3.7320   -0.3730    0.0000 H   0  0  0  0  0  0  0  0  0  0  0  0
    1.9264   -1.5754    0.0000 H   0  0  0  0  0  0  0  0  0  0  0  0
    2.3249   -2.2656    0.0000 H   0  0  0  0  0  0  0  0  0  0  0  0
    6.0010   -4.3030    0.0000 H   0  0  0  0  0  0  0  0  0  0  0  0
    3.7320   -4.9930    0.0000 H   0  0  0  0  0  0  0  0  0  0  0  0
    2.0000   -3.3730    0.0000 H   0  0  0  0  0  0  0  0  0  0  0  0
    3.7320    2.6270    0.0000 H   0  0  0  0  0  0  0  0  0  0  0  0
    2.0000   -0.3730    0.0000 H   0  0  0  0  0  0  0  0  0  0  0  0
  1 15  1  0  0  0  0
  1 17  1  0  0  0  0
  2 16  1  0  0  0  0
  2 40  1  0  0  0  0
  3 17  1  0  0  0  0
  3 22  1  0  0  0  0
  4 20  1  0  0  0  0
  4 23  1  0  0  0  0
  5 18  1  0  0  0  0
  5 48  1  0  0  0  0
  6 23  1  0  0  0  0
  6 27  1  0  0  0  0
  7 19  1  0  0  0  0
  7 49  1  0  0  0  0
  8 21  1  0  0  0  0
  8 50  1  0  0  0  0
  9 24  1  0  0  0  0
  9 53  1  0  0  0  0
 10 25  1  0  0  0  0
 10 54  1  0  0  0  0
 11 26  1  0  0  0  0
 11 55  1  0  0  0  0
 12 28  1  0  0  0  0
 12 56  1  0  0  0  0
 13 29  1  0  0  0  0
 13 57  1  0  0  0  0
 14 15  1  0  0  0  0
 14 16  1  0  0  0  0
 14 18  1  0  0  0  0
 14 30  1  0  0  0  0
 15 16  1  0  0  0  0
 15 31  1  0  0  0  0
 16 32  1  0  0  0  0
 17 19  1  0  0  0  0
 17 33  1  0  0  0  0
 18 34  1  0  0  0  0
 18 35  1  0  0  0  0
 19 20  1  0  0  0  0
 19 36  1  0  0  0  0
 20 21  1  0  0  0  0
 20 37  1  0  0  0  0
 21 22  1  0  0  0  0
 21 38  1  0  0  0  0
 22 28  1  0  0  0  0
 22 39  1  0  0  0  0
 23 24  1  0  0  0  0
 23 41  1  0  0  0  0
 24 25  1  0  0  0  0
 24 42  1  0  0  0  0
 25 26  1  0  0  0  0
 25 43  1  0  0  0  0
 26 27  1  0  0  0  0
 26 44  1  0  0  0  0
 27 29  1  0  0  0  0
 27 45  1  0  0  0  0
 28 46  1  0  0  0  0
 28 47  1  0  0  0  0
 29 51  1  0  0  0  0
 29 52  1  0  0  0  0
M  END
> <PUBCHEM_COMPOUND_CID>
139401752

> <PUBCHEM_COMPOUND_CANONICALIZED>
1

> <PUBCHEM_CACTVS_COMPLEXITY>
537

> <PUBCHEM_CACTVS_HBOND_ACCEPTOR>
13

> <PUBCHEM_CACTVS_HBOND_DONOR>
9

> <PUBCHEM_CACTVS_ROTATABLE_BOND>
7

> <PUBCHEM_CACTVS_SUBSKEYS>
AAADceB4PAAAAAAAAAAAAAAAGAAAAAAAAAAkSAAAAAAAAAAAAAAAGgAACAAADRSwgAMACAAABgAAAAAAAAAAAAAAAAAAAAAAAAAREAIAAAAiQAAFAAAHAAHAYAwAAAAAAAAAAAAAAAAAAAAAAAAAAAAAAA==

> <PUBCHEM_IUPAC_OPENEYE_NAME>
2-[3,5-dihydroxy-2-[2-hydroxy-3-(hydroxymethyl)cyclopropoxy]-6-(hydroxymethyl)tetrahydropyran-4-yl]oxy-6-(hydroxymethyl)tetrahydropyran-3,4,5-triol

> <PUBCHEM_IUPAC_CAS_NAME>
2-[[3,5-dihydroxy-2-[2-hydroxy-3-(hydroxymethyl)cyclopropyl]oxy-6-(hydroxymethyl)-4-oxanyl]oxy]-6-(hydroxymethyl)oxane-3,4,5-triol

> <PUBCHEM_IUPAC_NAME_MARKUP>
2-[3,5-dihydroxy-2-[2-hydroxy-3-(hydroxymethyl)cyclopropyl]oxy-6-(hydroxymethyl)oxan-4-yl]oxy-6-(hydroxymethyl)oxane-3,4,5-triol

> <PUBCHEM_IUPAC_NAME>
2-[3,5-dihydroxy-2-[2-hydroxy-3-(hydroxymethyl)cyclopropyl]oxy-6-(hydroxymethyl)oxan-4-yl]oxy-6-(hydroxymethyl)oxane-3,4,5-triol

> <PUBCHEM_IUPAC_SYSTEMATIC_NAME>
2-(hydroxymethyl)-6-[2-(hydroxymethyl)-6-[2-(hydroxymethyl)-3-oxidanyl-cyclopropyl]oxy-3,5-bis(oxidanyl)oxan-4-yl]oxy-oxane-3,4,5-triol

> <PUBCHEM_IUPAC_TRADITIONAL_NAME>
2-[3,5-dihydroxy-2-(2-hydroxy-3-methylol-cyclopropoxy)-6-methylol-tetrahydropyran-4-yl]oxy-6-methylol-tetrahydropyran-3,4,5-triol

> <PUBCHEM_IUPAC_INCHI>
InChI=1S/C16H28O13/c17-1-4-7(20)13(4)28-16-12(25)14(9(22)6(3-19)27-16)29-15-11(24)10(23)8(21)5(2-18)26-15/h4-25H,1-3H2

> <PUBCHEM_IUPAC_INCHIKEY>
JIZQUNJMXXWKQF-UHFFFAOYSA-N

> <PUBCHEM_XLOGP3_AA>
-4.3

> <PUBCHEM_EXACT_MASS>
428.15299094

> <PUBCHEM_MOLECULAR_FORMULA>
C16H28O13

> <PUBCHEM_MOLECULAR_WEIGHT>
428.39

> <PUBCHEM_OPENEYE_CAN_SMILES>
C(C1C(C1OC2C(C(C(C(O2)CO)O)OC3C(C(C(C(O3)CO)O)O)O)O)O)O

> <PUBCHEM_OPENEYE_ISO_SMILES>
C(C1C(C1OC2C(C(C(C(O2)CO)O)OC3C(C(C(C(O3)CO)O)O)O)O)O)O

> <PUBCHEM_CACTVS_TPSA>
219

> <PUBCHEM_MONOISOTOPIC_WEIGHT>
428.15299094

> <PUBCHEM_TOTAL_CHARGE>
0

> <PUBCHEM_HEAVY_ATOM_COUNT>
29

> <PUBCHEM_ATOM_DEF_STEREO_COUNT>
0

> <PUBCHEM_ATOM_UDEF_STEREO_COUNT>
13

> <PUBCHEM_BOND_DEF_STEREO_COUNT>
0

> <PUBCHEM_BOND_UDEF_STEREO_COUNT>
0

> <PUBCHEM_ISOTOPIC_ATOM_COUNT>
0

> <PUBCHEM_COMPONENT_COUNT>
1

> <PUBCHEM_CACTVS_TAUTO_COUNT>
-1

> <PUBCHEM_COORDINATE_TYPE>
1
5
255

> <PUBCHEM_BONDANNOTATIONS>
15  1  3
17  1  3
25  10  3
26  11  3
14  18  3
16  2  3
22  28  3
27  29  3
20  4  3
23  4  3
19  7  3
21  8  3
24  9  3

$$$$
