 
  -OEChem-10192104182D

 31 31  0     0  0  0  0  0  0999 V2000
    5.4641    0.8450    0.0000 P   0  0  0  0  0  0  0  0  0  0  0  0
    4.5981    2.3450    0.0000 P   0  0  0  0  0  0  0  0  0  0  0  0
    3.7320   -0.1550    0.0000 O   0  0  0  0  0  0  0  0  0  0  0  0
    6.3301    0.3450    0.0000 O   0  0  0  0  0  0  0  0  0  0  0  0
    4.9641   -0.0210    0.0000 O   0  0  0  0  0  0  0  0  0  0  0  0
    4.5981    3.3450    0.0000 O   0  0  0  0  0  0  0  0  0  0  0  0
    5.5981    2.3450    0.0000 O   0  0  0  0  0  0  0  0  0  0  0  0
    5.9641    1.7110    0.0000 O   0  0  0  0  0  0  0  0  0  0  0  0
    3.5981    2.3450    0.0000 O   0  0  0  0  0  0  0  0  0  0  0  0
    2.8660    1.3450    0.0000 O   0  0  0  0  0  0  0  0  0  0  0  0
    4.5981    1.3450    0.0000 C   0  0  0  0  0  0  0  0  0  0  0  0
    3.7320    0.8450    0.0000 C   0  0  0  0  0  0  0  0  0  0  0  0
    2.8660   -0.6550    0.0000 C   0  0  0  0  0  0  0  0  0  0  0  0
    2.8660   -1.6550    0.0000 C   0  0  0  0  0  0  0  0  0  0  0  0
    2.0000   -2.1550    0.0000 C   0  0  0  0  0  0  0  0  0  0  0  0
    3.7320   -2.1550    0.0000 C   0  0  0  0  0  0  0  0  0  0  0  0
    2.0000   -3.1550    0.0000 C   0  0  0  0  0  0  0  0  0  0  0  0
    3.7320   -3.1550    0.0000 C   0  0  0  0  0  0  0  0  0  0  0  0
    2.8660   -3.6550    0.0000 C   0  0  0  0  0  0  0  0  0  0  0  0
    4.5981    0.7250    0.0000 H   0  0  0  0  0  0  0  0  0  0  0  0
    2.6540   -0.0724    0.0000 H   0  0  0  0  0  0  0  0  0  0  0  0
    2.2554   -0.7627    0.0000 H   0  0  0  0  0  0  0  0  0  0  0  0
    6.8671    0.6550    0.0000 H   0  0  0  0  0  0  0  0  0  0  0  0
    5.2741   -0.5580    0.0000 H   0  0  0  0  0  0  0  0  0  0  0  0
    4.0611    3.6550    0.0000 H   0  0  0  0  0  0  0  0  0  0  0  0
    5.9081    2.8819    0.0000 H   0  0  0  0  0  0  0  0  0  0  0  0
    1.4631   -1.8450    0.0000 H   0  0  0  0  0  0  0  0  0  0  0  0
    4.2690   -1.8450    0.0000 H   0  0  0  0  0  0  0  0  0  0  0  0
    1.4631   -3.4650    0.0000 H   0  0  0  0  0  0  0  0  0  0  0  0
    4.2690   -3.4650    0.0000 H   0  0  0  0  0  0  0  0  0  0  0  0
    2.8660   -4.2750    0.0000 H   0  0  0  0  0  0  0  0  0  0  0  0
  1  4  1  0  0  0  0
  1  5  1  0  0  0  0
  1  8  2  0  0  0  0
  1 11  1  0  0  0  0
  2  6  1  0  0  0  0
  2  7  1  0  0  0  0
  2  9  2  0  0  0  0
  2 11  1  0  0  0  0
  3 12  1  0  0  0  0
  3 13  1  0  0  0  0
  4 23  1  0  0  0  0
  5 24  1  0  0  0  0
  6 25  1  0  0  0  0
  7 26  1  0  0  0  0
 10 12  2  0  0  0  0
 11 12  1  0  0  0  0
 11 20  1  0  0  0  0
 13 14  1  0  0  0  0
 13 21  1  0  0  0  0
 13 22  1  0  0  0  0
 14 15  2  0  0  0  0
 14 16  1  0  0  0  0
 15 17  1  0  0  0  0
 15 27  1  0  0  0  0
 16 18  2  0  0  0  0
 16 28  1  0  0  0  0
 17 19  2  0  0  0  0
 17 29  1  0  0  0  0
 18 19  1  0  0  0  0
 18 30  1  0  0  0  0
 19 31  1  0  0  0  0
M  END
> <PUBCHEM_COMPOUND_CID>
54380567

> <PUBCHEM_COMPOUND_CANONICALIZED>
1

> <PUBCHEM_CACTVS_COMPLEXITY>
382

> <PUBCHEM_CACTVS_HBOND_ACCEPTOR>
8

> <PUBCHEM_CACTVS_HBOND_DONOR>
4

> <PUBCHEM_CACTVS_ROTATABLE_BOND>
6

> <PUBCHEM_CACTVS_SUBSKEYS>
AAADccBwPAMAAAAAAAAAAAAAAAAAAAAAAAAwAAAAAAAAAAABAAAAGggACCAADAComAIwCIAABBCIQiDSCIACAAAgAAAIiAAACIgIJiKAMRiCMAAkwAEIqAeAwCAOAAAAAAAAAAAAAAAAAAAAAAAAAAAAAA==

> <PUBCHEM_IUPAC_OPENEYE_NAME>
(2-benzyloxy-2-oxo-1-phosphono-ethyl)phosphonic acid

> <PUBCHEM_IUPAC_CAS_NAME>
(2-oxo-2-phenylmethoxy-1-phosphonoethyl)phosphonic acid

> <PUBCHEM_IUPAC_NAME_MARKUP>
(2-oxo-2-phenylmethoxy-1-phosphonoethyl)phosphonic acid

> <PUBCHEM_IUPAC_NAME>
(2-oxo-2-phenylmethoxy-1-phosphonoethyl)phosphonic acid

> <PUBCHEM_IUPAC_SYSTEMATIC_NAME>
(2-oxidanylidene-2-phenylmethoxy-1-phosphono-ethyl)phosphonic acid

> <PUBCHEM_IUPAC_TRADITIONAL_NAME>
(2-benzoxy-2-keto-1-phosphono-ethyl)phosphonic acid

> <PUBCHEM_IUPAC_INCHI>
InChI=1S/C9H12O8P2/c10-8(9(18(11,12)13)19(14,15)16)17-6-7-4-2-1-3-5-7/h1-5,9H,6H2,(H2,11,12,13)(H2,14,15,16)

> <PUBCHEM_IUPAC_INCHIKEY>
UZOZFNSMCFNDJT-UHFFFAOYSA-N

> <PUBCHEM_XLOGP3_AA>
-1.9

> <PUBCHEM_EXACT_MASS>
310.00074133

> <PUBCHEM_MOLECULAR_FORMULA>
C9H12O8P2

> <PUBCHEM_MOLECULAR_WEIGHT>
310.13

> <PUBCHEM_OPENEYE_CAN_SMILES>
C1=CC=C(C=C1)COC(=O)C(P(=O)(O)O)P(=O)(O)O

> <PUBCHEM_OPENEYE_ISO_SMILES>
C1=CC=C(C=C1)COC(=O)C(P(=O)(O)O)P(=O)(O)O

> <PUBCHEM_CACTVS_TPSA>
141

> <PUBCHEM_MONOISOTOPIC_WEIGHT>
310.00074133

> <PUBCHEM_TOTAL_CHARGE>
0

> <PUBCHEM_HEAVY_ATOM_COUNT>
19

> <PUBCHEM_ATOM_DEF_STEREO_COUNT>
0

> <PUBCHEM_ATOM_UDEF_STEREO_COUNT>
0

> <PUBCHEM_BOND_DEF_STEREO_COUNT>
0

> <PUBCHEM_BOND_UDEF_STEREO_COUNT>
0

> <PUBCHEM_ISOTOPIC_ATOM_COUNT>
0

> <PUBCHEM_COMPONENT_COUNT>
1

> <PUBCHEM_CACTVS_TAUTO_COUNT>
-1

> <PUBCHEM_COORDINATE_TYPE>
1
5
255

> <PUBCHEM_BONDANNOTATIONS>
14  15  8
14  16  8
15  17  8
16  18  8
17  19  8
18  19  8

$$$$
