 
  -OEChem-10192103592D

 91 90  0     1  0  0  0  0  0999 V2000
    9.7942    1.2500    0.0000 O   0  0  0  0  0  0  0  0  0  0  0  0
    8.9282   -1.2500    0.0000 O   0  0  0  0  0  0  0  0  0  0  0  0
   11.5263    0.2500    0.0000 O   0  0  0  0  0  0  0  0  0  0  0  0
    7.1962   -0.2500    0.0000 O   0  0  0  0  0  0  0  0  0  0  0  0
    7.1962    1.7500    0.0000 O   0  0  0  0  0  0  0  0  0  0  0  0
   11.5263    1.2500    0.0000 O   0  0  0  0  0  0  0  0  0  0  0  0
    7.1962   -1.2500    0.0000 O   0  0  0  0  0  0  0  0  0  0  0  0
   12.3923   -1.2500    0.0000 O   0  0  0  0  0  0  0  0  0  0  0  0
    6.3301    1.2500    0.0000 O   0  0  0  0  0  0  0  0  0  0  0  0
    9.7942    0.2500    0.0000 C   0  0  2  0  0  0  0  0  0  0  0  0
    8.9282   -0.2500    0.0000 C   0  0  1  0  0  0  0  0  0  0  0  0
   10.6603   -0.2500    0.0000 C   0  0  1  0  0  0  0  0  0  0  0  0
    8.0622    0.2500    0.0000 C   0  0  2  0  0  0  0  0  0  0  0  0
   10.6603   -1.2500    0.0000 C   0  0  0  0  0  0  0  0  0  0  0  0
    8.0622    1.2500    0.0000 C   0  0  0  0  0  0  0  0  0  0  0  0
   10.6603    1.7500    0.0000 C   0  0  0  0  0  0  0  0  0  0  0  0
   10.6603    2.7500    0.0000 C   0  0  0  0  0  0  0  0  0  0  0  0
    8.0622   -1.7500    0.0000 C   0  0  0  0  0  0  0  0  0  0  0  0
    8.0622   -2.7500    0.0000 C   0  0  0  0  0  0  0  0  0  0  0  0
   11.5263    3.2500    0.0000 C   0  0  0  0  0  0  0  0  0  0  0  0
   12.3923   -0.2500    0.0000 C   0  0  0  0  0  0  0  0  0  0  0  0
    7.1962   -3.2500    0.0000 C   0  0  0  0  0  0  0  0  0  0  0  0
   13.2583    0.2500    0.0000 C   0  0  0  0  0  0  0  0  0  0  0  0
   14.1244   -0.2500    0.0000 C   0  0  0  0  0  0  0  0  0  0  0  0
    6.3301    0.2500    0.0000 C   0  0  0  0  0  0  0  0  0  0  0  0
    5.4641   -0.2500    0.0000 C   0  0  0  0  0  0  0  0  0  0  0  0
   11.5263    4.2500    0.0000 C   0  0  0  0  0  0  0  0  0  0  0  0
    7.1962   -4.2500    0.0000 C   0  0  0  0  0  0  0  0  0  0  0  0
    4.5981    0.2500    0.0000 C   0  0  0  0  0  0  0  0  0  0  0  0
   14.9904    0.2500    0.0000 C   0  0  0  0  0  0  0  0  0  0  0  0
    3.7320   -0.2500    0.0000 C   0  0  0  0  0  0  0  0  0  0  0  0
   12.3923    4.7500    0.0000 C   0  0  0  0  0  0  0  0  0  0  0  0
    6.3301   -4.7500    0.0000 C   0  0  0  0  0  0  0  0  0  0  0  0
   15.8564   -0.2500    0.0000 C   0  0  0  0  0  0  0  0  0  0  0  0
    2.8660    0.2500    0.0000 C   0  0  0  0  0  0  0  0  0  0  0  0
   12.3923    5.7500    0.0000 C   0  0  0  0  0  0  0  0  0  0  0  0
    6.3301   -5.7500    0.0000 C   0  0  0  0  0  0  0  0  0  0  0  0
   16.7224    0.2500    0.0000 C   0  0  0  0  0  0  0  0  0  0  0  0
    2.0000   -0.2500    0.0000 C   0  0  0  0  0  0  0  0  0  0  0  0
    9.2573    0.5600    0.0000 H   0  0  0  0  0  0  0  0  0  0  0  0
    9.4651   -0.5600    0.0000 H   0  0  0  0  0  0  0  0  0  0  0  0
   11.1972   -0.5600    0.0000 H   0  0  0  0  0  0  0  0  0  0  0  0
    8.0622   -0.3700    0.0000 H   0  0  0  0  0  0  0  0  0  0  0  0
   10.0403   -1.2500    0.0000 H   0  0  0  0  0  0  0  0  0  0  0  0
   10.6603   -1.8700    0.0000 H   0  0  0  0  0  0  0  0  0  0  0  0
   11.2803   -1.2500    0.0000 H   0  0  0  0  0  0  0  0  0  0  0  0
    8.5991    1.5600    0.0000 H   0  0  0  0  0  0  0  0  0  0  0  0
   10.4482    3.3326    0.0000 H   0  0  0  0  0  0  0  0  0  0  0  0
   10.0497    2.6423    0.0000 H   0  0  0  0  0  0  0  0  0  0  0  0
    8.2742   -3.3326    0.0000 H   0  0  0  0  0  0  0  0  0  0  0  0
    8.6728   -2.6423    0.0000 H   0  0  0  0  0  0  0  0  0  0  0  0
   11.7383    2.6674    0.0000 H   0  0  0  0  0  0  0  0  0  0  0  0
   12.1369    3.3577    0.0000 H   0  0  0  0  0  0  0  0  0  0  0  0
    6.9841   -2.6674    0.0000 H   0  0  0  0  0  0  0  0  0  0  0  0
    6.5856   -3.3577    0.0000 H   0  0  0  0  0  0  0  0  0  0  0  0
   13.6569    0.7249    0.0000 H   0  0  0  0  0  0  0  0  0  0  0  0
   12.8598    0.7249    0.0000 H   0  0  0  0  0  0  0  0  0  0  0  0
   13.7258   -0.7249    0.0000 H   0  0  0  0  0  0  0  0  0  0  0  0
   14.5229   -0.7249    0.0000 H   0  0  0  0  0  0  0  0  0  0  0  0
    5.0656   -0.7249    0.0000 H   0  0  0  0  0  0  0  0  0  0  0  0
    5.8626   -0.7249    0.0000 H   0  0  0  0  0  0  0  0  0  0  0  0
   11.3142    4.8326    0.0000 H   0  0  0  0  0  0  0  0  0  0  0  0
   10.9157    4.1423    0.0000 H   0  0  0  0  0  0  0  0  0  0  0  0
    7.4082   -4.8326    0.0000 H   0  0  0  0  0  0  0  0  0  0  0  0
    7.8067   -4.1423    0.0000 H   0  0  0  0  0  0  0  0  0  0  0  0
    4.9966    0.7249    0.0000 H   0  0  0  0  0  0  0  0  0  0  0  0
    4.1996    0.7249    0.0000 H   0  0  0  0  0  0  0  0  0  0  0  0
   15.3889    0.7249    0.0000 H   0  0  0  0  0  0  0  0  0  0  0  0
   14.5919    0.7249    0.0000 H   0  0  0  0  0  0  0  0  0  0  0  0
    3.3335   -0.7249    0.0000 H   0  0  0  0  0  0  0  0  0  0  0  0
    4.1306   -0.7249    0.0000 H   0  0  0  0  0  0  0  0  0  0  0  0
   12.6044    4.1674    0.0000 H   0  0  0  0  0  0  0  0  0  0  0  0
   13.0029    4.8577    0.0000 H   0  0  0  0  0  0  0  0  0  0  0  0
    6.1181   -4.1674    0.0000 H   0  0  0  0  0  0  0  0  0  0  0  0
    5.7196   -4.8577    0.0000 H   0  0  0  0  0  0  0  0  0  0  0  0
   15.4579   -0.7249    0.0000 H   0  0  0  0  0  0  0  0  0  0  0  0
   16.2549   -0.7249    0.0000 H   0  0  0  0  0  0  0  0  0  0  0  0
    3.2646    0.7249    0.0000 H   0  0  0  0  0  0  0  0  0  0  0  0
    2.4675    0.7249    0.0000 H   0  0  0  0  0  0  0  0  0  0  0  0
   13.0123    5.7500    0.0000 H   0  0  0  0  0  0  0  0  0  0  0  0
   12.3923    6.3700    0.0000 H   0  0  0  0  0  0  0  0  0  0  0  0
   11.7723    5.7500    0.0000 H   0  0  0  0  0  0  0  0  0  0  0  0
    5.7101   -5.7500    0.0000 H   0  0  0  0  0  0  0  0  0  0  0  0
    6.3301   -6.3700    0.0000 H   0  0  0  0  0  0  0  0  0  0  0  0
    6.9501   -5.7500    0.0000 H   0  0  0  0  0  0  0  0  0  0  0  0
   17.0324   -0.2869    0.0000 H   0  0  0  0  0  0  0  0  0  0  0  0
   17.2594    0.5600    0.0000 H   0  0  0  0  0  0  0  0  0  0  0  0
   16.4124    0.7869    0.0000 H   0  0  0  0  0  0  0  0  0  0  0  0
    1.6900    0.2869    0.0000 H   0  0  0  0  0  0  0  0  0  0  0  0
    1.4631   -0.5600    0.0000 H   0  0  0  0  0  0  0  0  0  0  0  0
    2.3100   -0.7869    0.0000 H   0  0  0  0  0  0  0  0  0  0  0  0
 10  1  1  1  0  0  0
  1 16  1  0  0  0  0
 11  2  1  6  0  0  0
  2 18  1  0  0  0  0
 12  3  1  6  0  0  0
  3 21  1  0  0  0  0
 13  4  1  1  0  0  0
  4 25  1  0  0  0  0
  5 15  2  0  0  0  0
  6 16  2  0  0  0  0
  7 18  2  0  0  0  0
  8 21  2  0  0  0  0
  9 25  2  0  0  0  0
 10 11  1  0  0  0  0
 10 12  1  0  0  0  0
 10 40  1  0  0  0  0
 11 13  1  0  0  0  0
 11 41  1  0  0  0  0
 12 14  1  0  0  0  0
 12 42  1  0  0  0  0
 13 15  1  0  0  0  0
 13 43  1  0  0  0  0
 14 44  1  0  0  0  0
 14 45  1  0  0  0  0
 14 46  1  0  0  0  0
 15 47  1  0  0  0  0
 16 17  1  0  0  0  0
 17 20  1  0  0  0  0
 17 48  1  0  0  0  0
 17 49  1  0  0  0  0
 18 19  1  0  0  0  0
 19 22  1  0  0  0  0
 19 50  1  0  0  0  0
 19 51  1  0  0  0  0
 20 27  1  0  0  0  0
 20 52  1  0  0  0  0
 20 53  1  0  0  0  0
 21 23  1  0  0  0  0
 22 28  1  0  0  0  0
 22 54  1  0  0  0  0
 22 55  1  0  0  0  0
 23 24  1  0  0  0  0
 23 56  1  0  0  0  0
 23 57  1  0  0  0  0
 24 30  1  0  0  0  0
 24 58  1  0  0  0  0
 24 59  1  0  0  0  0
 25 26  1  0  0  0  0
 26 29  1  0  0  0  0
 26 60  1  0  0  0  0
 26 61  1  0  0  0  0
 27 32  1  0  0  0  0
 27 62  1  0  0  0  0
 27 63  1  0  0  0  0
 28 33  1  0  0  0  0
 28 64  1  0  0  0  0
 28 65  1  0  0  0  0
 29 31  1  0  0  0  0
 29 66  1  0  0  0  0
 29 67  1  0  0  0  0
 30 34  1  0  0  0  0
 30 68  1  0  0  0  0
 30 69  1  0  0  0  0
 31 35  1  0  0  0  0
 31 70  1  0  0  0  0
 31 71  1  0  0  0  0
 32 36  1  0  0  0  0
 32 72  1  0  0  0  0
 32 73  1  0  0  0  0
 33 37  1  0  0  0  0
 33 74  1  0  0  0  0
 33 75  1  0  0  0  0
 34 38  1  0  0  0  0
 34 76  1  0  0  0  0
 34 77  1  0  0  0  0
 35 39  1  0  0  0  0
 35 78  1  0  0  0  0
 35 79  1  0  0  0  0
 36 80  1  0  0  0  0
 36 81  1  0  0  0  0
 36 82  1  0  0  0  0
 37 83  1  0  0  0  0
 37 84  1  0  0  0  0
 37 85  1  0  0  0  0
 38 86  1  0  0  0  0
 38 87  1  0  0  0  0
 38 88  1  0  0  0  0
 39 89  1  0  0  0  0
 39 90  1  0  0  0  0
 39 91  1  0  0  0  0
M  END
> <PUBCHEM_COMPOUND_CID>
123895906

> <PUBCHEM_COMPOUND_CANONICALIZED>
1

> <PUBCHEM_CACTVS_COMPLEXITY>
707

> <PUBCHEM_CACTVS_HBOND_ACCEPTOR>
9

> <PUBCHEM_CACTVS_HBOND_DONOR>
0

> <PUBCHEM_CACTVS_ROTATABLE_BOND>
28

> <PUBCHEM_CACTVS_SUBSKEYS>
AAADcfB4PAAAAAAAAAAAAAAAAAAAAAAAAAAAAAAAAAAAAAAAAAAAGgAAAAAACBSggAICCAAABAAIAAiQiAIAAAAAAAAAAAFAAAABABYAAAQCAAAFIAACAAHKTABAAAAAAAAAAAAAAAAAAAAAAAAAAAAAAA==

> <PUBCHEM_IUPAC_OPENEYE_NAME>
[(1R,2S,3S,4R)-2,3,4-tri(hexanoyloxy)-1-methyl-5-oxo-pentyl] hexanoate

> <PUBCHEM_IUPAC_CAS_NAME>
hexanoic acid [(2R,3S,4S,5R)-6-oxo-3,4,5-tris(1-oxohexoxy)hexan-2-yl] ester

> <PUBCHEM_IUPAC_NAME_MARKUP>
[(2<I>R</I>,3<I>S</I>,4<I>S</I>,5<I>R</I>)-3,4,5-tri(hexanoyloxy)-6-oxohexan-2-yl] hexanoate

> <PUBCHEM_IUPAC_NAME>
[(2R,3S,4S,5R)-3,4,5-tri(hexanoyloxy)-6-oxohexan-2-yl] hexanoate

> <PUBCHEM_IUPAC_SYSTEMATIC_NAME>
[(2R,3S,4S,5R)-3,4,5-tri(hexanoyloxy)-6-oxidanylidene-hexan-2-yl] hexanoate

> <PUBCHEM_IUPAC_TRADITIONAL_NAME>
hexanoic acid [(1R,2S,3S,4R)-2,3,4-tricaproyloxy-5-keto-1-methyl-pentyl] ester

> <PUBCHEM_IUPAC_INCHI>
InChI=1S/C30H52O9/c1-6-10-14-18-25(32)36-23(5)29(38-27(34)20-16-12-8-3)30(39-28(35)21-17-13-9-4)24(22-31)37-26(33)19-15-11-7-2/h22-24,29-30H,6-21H2,1-5H3/t23-,24+,29+,30-/m1/s1

> <PUBCHEM_IUPAC_INCHIKEY>
ODQVBHNGCAKUEE-LZEUDMGESA-N

> <PUBCHEM_XLOGP3_AA>
7.6

> <PUBCHEM_EXACT_MASS>
556.36113323

> <PUBCHEM_MOLECULAR_FORMULA>
C30H52O9

> <PUBCHEM_MOLECULAR_WEIGHT>
556.7

> <PUBCHEM_OPENEYE_CAN_SMILES>
CCCCCC(=O)OC(C)C(C(C(C=O)OC(=O)CCCCC)OC(=O)CCCCC)OC(=O)CCCCC

> <PUBCHEM_OPENEYE_ISO_SMILES>
CCCCCC(=O)O[C@H](C)[C@@H]([C@@H]([C@H](C=O)OC(=O)CCCCC)OC(=O)CCCCC)OC(=O)CCCCC

> <PUBCHEM_CACTVS_TPSA>
122

> <PUBCHEM_MONOISOTOPIC_WEIGHT>
556.36113323

> <PUBCHEM_TOTAL_CHARGE>
0

> <PUBCHEM_HEAVY_ATOM_COUNT>
39

> <PUBCHEM_ATOM_DEF_STEREO_COUNT>
4

> <PUBCHEM_ATOM_UDEF_STEREO_COUNT>
0

> <PUBCHEM_BOND_DEF_STEREO_COUNT>
0

> <PUBCHEM_BOND_UDEF_STEREO_COUNT>
0

> <PUBCHEM_ISOTOPIC_ATOM_COUNT>
0

> <PUBCHEM_COMPONENT_COUNT>
1

> <PUBCHEM_CACTVS_TAUTO_COUNT>
-1

> <PUBCHEM_COORDINATE_TYPE>
1
5
255

> <PUBCHEM_BONDANNOTATIONS>
10  1  5
11  2  6
12  3  6
13  4  5

$$$$
