 
  -OEChem-10192104142D

 58 60  0     1  0  0  0  0  0999 V2000
    8.2606   -3.2250    0.0000 S   0  0  0  0  0  0  0  0  0  0  0  0
    4.1128    3.4222    0.0000 P   0  0  0  0  0  0  0  0  0  0  0  0
    6.4013   -0.6597    0.0000 O   0  0  0  0  0  0  0  0  0  0  0  0
    8.7473   -1.7516    0.0000 O   0  0  0  0  0  0  0  0  0  0  0  0
    8.7510    0.4240    0.0000 O   0  0  0  0  0  0  0  0  0  0  0  0
    5.7053    1.3095    0.0000 O   0  0  0  0  0  0  0  0  0  0  0  0
    6.0684    3.0030    0.0000 O   0  0  0  0  0  0  0  0  0  0  0  0
    3.8054    4.3738    0.0000 O   0  0  0  0  0  0  0  0  0  0  0  0
    3.1612    3.1149    0.0000 O   0  0  0  0  0  0  0  0  0  0  0  0
    5.0644    3.7296    0.0000 O   0  0  0  0  0  0  0  0  0  0  0  0
    6.6770   -2.4203    0.0000 N   0  0  0  0  0  0  0  0  0  0  0  0
    6.6770   -4.0298    0.0000 N   0  0  0  0  0  0  0  0  0  0  0  0
    4.8648   -2.2250    0.0000 N   0  0  0  0  0  0  0  0  0  0  0  0
    3.9987   -3.7250    0.0000 N   0  0  0  0  0  0  0  0  0  0  0  0
    4.8648   -5.2250    0.0000 N   0  0  0  0  0  0  0  0  0  0  0  0
    7.9393   -1.1624    0.0000 C   0  0  2  0  0  0  0  0  0  0  0  0
    7.9410   -0.1624    0.0000 C   0  0  1  0  0  0  0  0  0  0  0  0
    6.9877   -1.4698    0.0000 C   0  0  1  0  0  0  0  0  0  0  0  0
    6.9905    0.1483    0.0000 C   0  0  1  0  0  0  0  0  0  0  0  0
    6.6831    1.0998    0.0000 C   0  0  0  0  0  0  0  0  0  0  0  0
    5.7308   -2.7250    0.0000 C   0  0  0  0  0  0  0  0  0  0  0  0
    7.2606   -3.2250    0.0000 C   0  0  0  0  0  0  0  0  0  0  0  0
    5.7308   -3.7250    0.0000 C   0  0  0  0  0  0  0  0  0  0  0  0
    4.8648   -4.2250    0.0000 C   0  0  0  0  0  0  0  0  0  0  0  0
    5.3979    2.2610    0.0000 C   0  0  0  0  0  0  0  0  0  0  0  0
    4.4201    2.4706    0.0000 C   0  0  0  0  0  0  0  0  0  0  0  0
    3.9987   -2.7250    0.0000 C   0  0  0  0  0  0  0  0  0  0  0  0
    8.7606   -4.0910    0.0000 C   0  0  0  0  0  0  0  0  0  0  0  0
    2.8276    4.5834    0.0000 C   0  0  0  0  0  0  0  0  0  0  0  0
    2.9516    2.1371    0.0000 C   0  0  0  0  0  0  0  0  0  0  0  0
    2.5203    5.5350    0.0000 C   0  0  0  0  0  0  0  0  0  0  0  0
    2.0000    1.8297    0.0000 C   0  0  0  0  0  0  0  0  0  0  0  0
    7.8412   -1.7746    0.0000 H   0  0  0  0  0  0  0  0  0  0  0  0
    7.8451    0.4501    0.0000 H   0  0  0  0  0  0  0  0  0  0  0  0
    6.3751   -1.5657    0.0000 H   0  0  0  0  0  0  0  0  0  0  0  0
    6.3783    0.2463    0.0000 H   0  0  0  0  0  0  0  0  0  0  0  0
    7.2972    1.1851    0.0000 H   0  0  0  0  0  0  0  0  0  0  0  0
    6.7058    1.7194    0.0000 H   0  0  0  0  0  0  0  0  0  0  0  0
    9.3141   -1.5004    0.0000 H   0  0  0  0  0  0  0  0  0  0  0  0
    8.6873    1.0407    0.0000 H   0  0  0  0  0  0  0  0  0  0  0  0
    3.8060    2.3854    0.0000 H   0  0  0  0  0  0  0  0  0  0  0  0
    4.3974    1.8511    0.0000 H   0  0  0  0  0  0  0  0  0  0  0  0
    3.4618   -2.4150    0.0000 H   0  0  0  0  0  0  0  0  0  0  0  0
    8.2237   -4.4010    0.0000 H   0  0  0  0  0  0  0  0  0  0  0  0
    9.0706   -4.6280    0.0000 H   0  0  0  0  0  0  0  0  0  0  0  0
    9.2976   -3.7810    0.0000 H   0  0  0  0  0  0  0  0  0  0  0  0
    4.3278   -5.5350    0.0000 H   0  0  0  0  0  0  0  0  0  0  0  0
    5.4017   -5.5350    0.0000 H   0  0  0  0  0  0  0  0  0  0  0  0
    2.2135    4.4982    0.0000 H   0  0  0  0  0  0  0  0  0  0  0  0
    2.8049    3.9638    0.0000 H   0  0  0  0  0  0  0  0  0  0  0  0
    3.0368    1.5230    0.0000 H   0  0  0  0  0  0  0  0  0  0  0  0
    3.5712    2.1144    0.0000 H   0  0  0  0  0  0  0  0  0  0  0  0
    3.1102    5.7256    0.0000 H   0  0  0  0  0  0  0  0  0  0  0  0
    2.3297    6.1250    0.0000 H   0  0  0  0  0  0  0  0  0  0  0  0
    1.9303    5.3444    0.0000 H   0  0  0  0  0  0  0  0  0  0  0  0
    1.8094    2.4197    0.0000 H   0  0  0  0  0  0  0  0  0  0  0  0
    1.4100    1.6391    0.0000 H   0  0  0  0  0  0  0  0  0  0  0  0
    2.1906    1.2397    0.0000 H   0  0  0  0  0  0  0  0  0  0  0  0
  1 22  1  0  0  0  0
  1 28  1  0  0  0  0
  2  8  1  0  0  0  0
  2  9  1  0  0  0  0
  2 10  2  0  0  0  0
  2 26  1  0  0  0  0
  3 18  1  0  0  0  0
  3 19  1  0  0  0  0
 16  4  1  1  0  0  0
  4 39  1  0  0  0  0
 17  5  1  1  0  0  0
  5 40  1  0  0  0  0
  6 20  1  0  0  0  0
  6 25  1  0  0  0  0
  7 25  2  0  0  0  0
  8 29  1  0  0  0  0
  9 30  1  0  0  0  0
 18 11  1  6  0  0  0
 11 21  1  0  0  0  0
 11 22  1  0  0  0  0
 12 22  2  0  0  0  0
 12 23  1  0  0  0  0
 13 21  2  0  0  0  0
 13 27  1  0  0  0  0
 14 24  1  0  0  0  0
 14 27  2  0  0  0  0
 15 24  1  0  0  0  0
 15 47  1  0  0  0  0
 15 48  1  0  0  0  0
 16 17  1  0  0  0  0
 16 18  1  0  0  0  0
 16 33  1  0  0  0  0
 17 19  1  0  0  0  0
 17 34  1  0  0  0  0
 18 35  1  0  0  0  0
 19 20  1  6  0  0  0
 19 36  1  0  0  0  0
 20 37  1  0  0  0  0
 20 38  1  0  0  0  0
 21 23  1  0  0  0  0
 23 24  2  0  0  0  0
 25 26  1  0  0  0  0
 26 41  1  0  0  0  0
 26 42  1  0  0  0  0
 27 43  1  0  0  0  0
 28 44  1  0  0  0  0
 28 45  1  0  0  0  0
 28 46  1  0  0  0  0
 29 31  1  0  0  0  0
 29 49  1  0  0  0  0
 29 50  1  0  0  0  0
 30 32  1  0  0  0  0
 30 51  1  0  0  0  0
 30 52  1  0  0  0  0
 31 53  1  0  0  0  0
 31 54  1  0  0  0  0
 31 55  1  0  0  0  0
 32 56  1  0  0  0  0
 32 57  1  0  0  0  0
 32 58  1  0  0  0  0
M  END
> <PUBCHEM_COMPOUND_CID>
66573202

> <PUBCHEM_COMPOUND_CANONICALIZED>
1

> <PUBCHEM_CACTVS_COMPLEXITY>
685

> <PUBCHEM_CACTVS_HBOND_ACCEPTOR>
13

> <PUBCHEM_CACTVS_HBOND_DONOR>
3

> <PUBCHEM_CACTVS_ROTATABLE_BOND>
11

> <PUBCHEM_CACTVS_SUBSKEYS>
AAADceB7vAJAAAAAAAAAAAAAAAAAAWJAAAAsAAAAAAAAAFgB+AAAHgwQCCAACBzplwaH+L9MFxioQQbxbICA0C1REKABUCAoVBCDWAJAyEAeRAgPAALTACDwMAoAAAAAAAAAAAAAAAAAAAAAAAAAAAAAAA==

> <PUBCHEM_IUPAC_OPENEYE_NAME>
[(2R,3S,4R,5R)-5-(6-amino-8-methylsulfanyl-purin-9-yl)-3,4-dihydroxy-tetrahydrofuran-2-yl]methyl 2-diethoxyphosphorylacetate

> <PUBCHEM_IUPAC_CAS_NAME>
2-diethoxyphosphorylacetic acid [(2R,3S,4R,5R)-5-[6-amino-8-(methylthio)-9-purinyl]-3,4-dihydroxy-2-oxolanyl]methyl ester

> <PUBCHEM_IUPAC_NAME_MARKUP>
[(2<I>R</I>,3<I>S</I>,4<I>R</I>,5<I>R</I>)-5-(6-amino-8-methylsulfanylpurin-9-yl)-3,4-dihydroxyoxolan-2-yl]methyl 2-diethoxyphosphorylacetate

> <PUBCHEM_IUPAC_NAME>
[(2R,3S,4R,5R)-5-(6-amino-8-methylsulfanylpurin-9-yl)-3,4-dihydroxyoxolan-2-yl]methyl 2-diethoxyphosphorylacetate

> <PUBCHEM_IUPAC_SYSTEMATIC_NAME>
[(2R,3S,4R,5R)-5-(6-azanyl-8-methylsulfanyl-purin-9-yl)-3,4-bis(oxidanyl)oxolan-2-yl]methyl 2-diethoxyphosphorylethanoate

> <PUBCHEM_IUPAC_TRADITIONAL_NAME>
2-diethoxyphosphorylacetic acid [(2R,3S,4R,5R)-5-[6-amino-8-(methylthio)purin-9-yl]-3,4-dihydroxy-tetrahydrofuran-2-yl]methyl ester

> <PUBCHEM_IUPAC_INCHI>
InChI=1S/C17H26N5O8PS/c1-4-28-31(26,29-5-2)7-10(23)27-6-9-12(24)13(25)16(30-9)22-15-11(21-17(22)32-3)14(18)19-8-20-15/h8-9,12-13,16,24-25H,4-7H2,1-3H3,(H2,18,19,20)/t9-,12-,13-,16-/m1/s1

> <PUBCHEM_IUPAC_INCHIKEY>
UPBROSLJECOGLC-RVXWVPLUSA-N

> <PUBCHEM_XLOGP3_AA>
-1

> <PUBCHEM_EXACT_MASS>
491.12397098

> <PUBCHEM_MOLECULAR_FORMULA>
C17H26N5O8PS

> <PUBCHEM_MOLECULAR_WEIGHT>
491.5

> <PUBCHEM_OPENEYE_CAN_SMILES>
CCOP(=O)(CC(=O)OCC1C(C(C(O1)N2C3=NC=NC(=C3N=C2SC)N)O)O)OCC

> <PUBCHEM_OPENEYE_ISO_SMILES>
CCOP(=O)(CC(=O)OC[C@@H]1[C@H]([C@H]([C@@H](O1)N2C3=NC=NC(=C3N=C2SC)N)O)O)OCC

> <PUBCHEM_CACTVS_TPSA>
206

> <PUBCHEM_MONOISOTOPIC_WEIGHT>
491.12397098

> <PUBCHEM_TOTAL_CHARGE>
0

> <PUBCHEM_HEAVY_ATOM_COUNT>
32

> <PUBCHEM_ATOM_DEF_STEREO_COUNT>
4

> <PUBCHEM_ATOM_UDEF_STEREO_COUNT>
0

> <PUBCHEM_BOND_DEF_STEREO_COUNT>
0

> <PUBCHEM_BOND_UDEF_STEREO_COUNT>
0

> <PUBCHEM_ISOTOPIC_ATOM_COUNT>
0

> <PUBCHEM_COMPONENT_COUNT>
1

> <PUBCHEM_CACTVS_TAUTO_COUNT>
-1

> <PUBCHEM_COORDINATE_TYPE>
1
5
255

> <PUBCHEM_BONDANNOTATIONS>
18  11  6
11  21  8
11  22  8
12  22  8
12  23  8
13  21  8
13  27  8
14  24  8
14  27  8
19  20  6
21  23  8
23  24  8
16  4  5
17  5  5

$$$$
