 
  -OEChem-10192104302D

 48 50  0     1  0  0  0  0  0999 V2000
   12.1603   -3.3660    0.0000 O   0  0  0  0  0  0  0  0  0  0  0  0
    7.6962    3.3660    0.0000 O   0  0  0  0  0  0  0  0  0  0  0  0
   10.7942   -1.0000    0.0000 O   0  0  0  0  0  0  0  0  0  0  0  0
    2.0000   -0.5000    0.0000 O   0  0  0  0  0  0  0  0  0  0  0  0
    9.0622    1.0000    0.0000 O   0  0  0  0  0  0  0  0  0  0  0  0
    4.7320   -0.5000    0.0000 O   0  0  0  0  0  0  0  0  0  0  0  0
    8.1962   -0.5000    0.0000 O   0  0  0  0  0  0  0  0  0  0  0  0
   11.6603   -2.5000    0.0000 C   0  0  3  0  0  0  0  0  0  0  0  0
    8.1962    2.5000    0.0000 C   0  0  3  0  0  0  0  0  0  0  0  0
   12.6603   -2.5000    0.0000 C   0  0  0  0  0  0  0  0  0  0  0  0
   10.7942   -2.0000    0.0000 C   0  0  0  0  0  0  0  0  0  0  0  0
    9.9282   -0.5000    0.0000 C   0  0  3  0  0  0  0  0  0  0  0  0
    3.0000   -0.5000    0.0000 C   0  0  3  0  0  0  0  0  0  0  0  0
    7.1962    2.5000    0.0000 C   0  0  0  0  0  0  0  0  0  0  0  0
    9.0622    2.0000    0.0000 C   0  0  0  0  0  0  0  0  0  0  0  0
    2.5000    0.3660    0.0000 C   0  0  0  0  0  0  0  0  0  0  0  0
    9.9282    0.5000    0.0000 C   0  0  0  0  0  0  0  0  0  0  0  0
    3.8660   -1.0000    0.0000 C   0  0  0  0  0  0  0  0  0  0  0  0
    9.0622   -1.0000    0.0000 C   0  0  0  0  0  0  0  0  0  0  0  0
    6.4641   -0.5000    0.0000 C   0  0  0  0  0  0  0  0  0  0  0  0
    5.5981   -1.0000    0.0000 C   0  0  0  0  0  0  0  0  0  0  0  0
    7.3301   -1.0000    0.0000 C   0  0  0  0  0  0  0  0  0  0  0  0
   11.2218   -2.9384    0.0000 H   0  0  0  0  0  0  0  0  0  0  0  0
    8.6346    2.9384    0.0000 H   0  0  0  0  0  0  0  0  0  0  0  0
   13.2429   -2.7120    0.0000 H   0  0  0  0  0  0  0  0  0  0  0  0
   12.7679   -1.8894    0.0000 H   0  0  0  0  0  0  0  0  0  0  0  0
   10.1836   -1.8923    0.0000 H   0  0  0  0  0  0  0  0  0  0  0  0
   10.5822   -2.5826    0.0000 H   0  0  0  0  0  0  0  0  0  0  0  0
   10.4651   -0.1900    0.0000 H   0  0  0  0  0  0  0  0  0  0  0  0
    2.8395   -1.0989    0.0000 H   0  0  0  0  0  0  0  0  0  0  0  0
    6.6135    2.7120    0.0000 H   0  0  0  0  0  0  0  0  0  0  0  0
    7.0885    1.8894    0.0000 H   0  0  0  0  0  0  0  0  0  0  0  0
    9.6728    1.8923    0.0000 H   0  0  0  0  0  0  0  0  0  0  0  0
    9.2742    2.5826    0.0000 H   0  0  0  0  0  0  0  0  0  0  0  0
    2.9750    0.7646    0.0000 H   0  0  0  0  0  0  0  0  0  0  0  0
    2.0250    0.7646    0.0000 H   0  0  0  0  0  0  0  0  0  0  0  0
   10.5388    0.3923    0.0000 H   0  0  0  0  0  0  0  0  0  0  0  0
   10.1403    1.0826    0.0000 H   0  0  0  0  0  0  0  0  0  0  0  0
    3.4675   -1.4750    0.0000 H   0  0  0  0  0  0  0  0  0  0  0  0
    4.2646   -1.4750    0.0000 H   0  0  0  0  0  0  0  0  0  0  0  0
    8.6636   -1.4750    0.0000 H   0  0  0  0  0  0  0  0  0  0  0  0
    9.4607   -1.4750    0.0000 H   0  0  0  0  0  0  0  0  0  0  0  0
    6.8626   -0.0251    0.0000 H   0  0  0  0  0  0  0  0  0  0  0  0
    6.0656   -0.0251    0.0000 H   0  0  0  0  0  0  0  0  0  0  0  0
    5.1996   -1.4750    0.0000 H   0  0  0  0  0  0  0  0  0  0  0  0
    5.9966   -1.4750    0.0000 H   0  0  0  0  0  0  0  0  0  0  0  0
    6.9316   -1.4750    0.0000 H   0  0  0  0  0  0  0  0  0  0  0  0
    7.7287   -1.4750    0.0000 H   0  0  0  0  0  0  0  0  0  0  0  0
  1  8  1  0  0  0  0
  1 10  1  0  0  0  0
  2  9  1  0  0  0  0
  2 14  1  0  0  0  0
  3 11  1  0  0  0  0
  3 12  1  0  0  0  0
  4 13  1  0  0  0  0
  4 16  1  0  0  0  0
  5 15  1  0  0  0  0
  5 17  1  0  0  0  0
  6 18  1  0  0  0  0
  6 21  1  0  0  0  0
  7 19  1  0  0  0  0
  7 22  1  0  0  0  0
  8 10  1  0  0  0  0
  8 11  1  0  0  0  0
  8 23  1  0  0  0  0
  9 14  1  0  0  0  0
  9 15  1  0  0  0  0
  9 24  1  0  0  0  0
 10 25  1  0  0  0  0
 10 26  1  0  0  0  0
 11 27  1  0  0  0  0
 11 28  1  0  0  0  0
 12 17  1  0  0  0  0
 12 19  1  0  0  0  0
 12 29  1  0  0  0  0
 13 16  1  0  0  0  0
 13 18  1  0  0  0  0
 13 30  1  0  0  0  0
 14 31  1  0  0  0  0
 14 32  1  0  0  0  0
 15 33  1  0  0  0  0
 15 34  1  0  0  0  0
 16 35  1  0  0  0  0
 16 36  1  0  0  0  0
 17 37  1  0  0  0  0
 17 38  1  0  0  0  0
 18 39  1  0  0  0  0
 18 40  1  0  0  0  0
 19 41  1  0  0  0  0
 19 42  1  0  0  0  0
 20 21  1  0  0  0  0
 20 22  1  0  0  0  0
 20 43  1  0  0  0  0
 20 44  1  0  0  0  0
 21 45  1  0  0  0  0
 21 46  1  0  0  0  0
 22 47  1  0  0  0  0
 22 48  1  0  0  0  0
M  END
> <PUBCHEM_COMPOUND_CID>
20710605

> <PUBCHEM_COMPOUND_CANONICALIZED>
1

> <PUBCHEM_CACTVS_COMPLEXITY>
314

> <PUBCHEM_CACTVS_HBOND_ACCEPTOR>
7

> <PUBCHEM_CACTVS_HBOND_DONOR>
0

> <PUBCHEM_CACTVS_ROTATABLE_BOND>
15

> <PUBCHEM_CACTVS_SUBSKEYS>
AAADceBwOAAAAAAAAAAAAAAAEiQAAAAAAAAAAAAAAAAAAAAAAAAAGgAAAAAACBSggAIAAAAABAAAAAAAAAAAAAAAAAAAAAAAAAABAAAAAAACAAABAAACAAAAAAAAAAAAAAAAAAAAAAAAAAAAAAAAAAAAAA==

> <PUBCHEM_IUPAC_OPENEYE_NAME>
2-[3-[2,3-bis(oxiran-2-ylmethoxy)propoxy]propoxymethyl]oxirane

> <PUBCHEM_IUPAC_CAS_NAME>
2-[3-[2,3-bis(2-oxiranylmethoxy)propoxy]propoxymethyl]oxirane

> <PUBCHEM_IUPAC_NAME_MARKUP>
2-[3-[2,3-bis(oxiran-2-ylmethoxy)propoxy]propoxymethyl]oxirane

> <PUBCHEM_IUPAC_NAME>
2-[3-[2,3-bis(oxiran-2-ylmethoxy)propoxy]propoxymethyl]oxirane

> <PUBCHEM_IUPAC_SYSTEMATIC_NAME>
2-[3-[2,3-bis(oxiran-2-ylmethoxy)propoxy]propoxymethyl]oxirane

> <PUBCHEM_IUPAC_TRADITIONAL_NAME>
2-[3-(2,3-diglycidoxypropoxy)propoxymethyl]oxirane

> <PUBCHEM_IUPAC_INCHI>
InChI=1S/C15H26O7/c1(3-17-5-13-8-20-13)2-16-4-12(19-10-15-11-22-15)6-18-7-14-9-21-14/h12-15H,1-11H2

> <PUBCHEM_IUPAC_INCHIKEY>
ICIJKRYRGRYQKN-UHFFFAOYSA-N

> <PUBCHEM_XLOGP3_AA>
-0.9

> <PUBCHEM_EXACT_MASS>
318.16785316

> <PUBCHEM_MOLECULAR_FORMULA>
C15H26O7

> <PUBCHEM_MOLECULAR_WEIGHT>
318.36

> <PUBCHEM_OPENEYE_CAN_SMILES>
C1C(O1)COCCCOCC(COCC2CO2)OCC3CO3

> <PUBCHEM_OPENEYE_ISO_SMILES>
C1C(O1)COCCCOCC(COCC2CO2)OCC3CO3

> <PUBCHEM_CACTVS_TPSA>
74.5

> <PUBCHEM_MONOISOTOPIC_WEIGHT>
318.16785316

> <PUBCHEM_TOTAL_CHARGE>
0

> <PUBCHEM_HEAVY_ATOM_COUNT>
22

> <PUBCHEM_ATOM_DEF_STEREO_COUNT>
0

> <PUBCHEM_ATOM_UDEF_STEREO_COUNT>
4

> <PUBCHEM_BOND_DEF_STEREO_COUNT>
0

> <PUBCHEM_BOND_UDEF_STEREO_COUNT>
0

> <PUBCHEM_ISOTOPIC_ATOM_COUNT>
0

> <PUBCHEM_COMPONENT_COUNT>
1

> <PUBCHEM_CACTVS_TAUTO_COUNT>
-1

> <PUBCHEM_COORDINATE_TYPE>
1
5
255

> <PUBCHEM_BONDANNOTATIONS>
12  19  3
13  18  3
8  11  3
9  15  3

$$$$
