 
  -OEChem-10192103292D

 34 34  0     1  0  0  0  0  0999 V2000
    6.3301   -1.7500    0.0000 O   0  0  0  0  0  0  0  0  0  0  0  0
    5.4641    0.7500    0.0000 O   0  0  0  0  0  0  0  0  0  0  0  0
    3.7320   -0.2500    0.0000 O   0  0  0  0  0  0  0  0  0  0  0  0
    8.0622   -0.7500    0.0000 O   0  0  0  0  0  0  0  0  0  0  0  0
    7.1962    0.7500    0.0000 O   0  0  0  0  0  0  0  0  0  0  0  0
    2.8660   -1.7500    0.0000 O   0  0  0  0  0  0  0  0  0  0  0  0
    8.9282    0.7500    0.0000 O   0  0  0  0  0  0  0  0  0  0  0  0
    5.4641   -0.2500    0.0000 C   0  0  3  0  0  0  0  0  0  0  0  0
    6.3301   -0.7500    0.0000 C   0  0  3  0  0  0  0  0  0  0  0  0
    4.5981   -0.7500    0.0000 C   0  0  3  0  0  0  0  0  0  0  0  0
    7.1962   -0.2500    0.0000 C   0  0  0  0  0  0  0  0  0  0  0  0
    4.5981   -1.7500    0.0000 C   0  0  0  0  0  0  0  0  0  0  0  0
    5.4641   -2.2500    0.0000 C   0  3  0  0  0  0  0  0  0  0  0  0
    6.3301    1.2500    0.0000 C   0  0  0  0  0  0  0  0  0  0  0  0
    2.8660   -0.7500    0.0000 C   0  0  0  0  0  0  0  0  0  0  0  0
    8.9282   -0.2500    0.0000 C   0  0  0  0  0  0  0  0  0  0  0  0
    6.3301    2.2500    0.0000 C   0  0  0  0  0  0  0  0  0  0  0  0
    2.0000   -0.2500    0.0000 C   0  0  0  0  0  0  0  0  0  0  0  0
    9.7942   -0.7500    0.0000 C   0  0  0  0  0  0  0  0  0  0  0  0
    6.0010    0.0600    0.0000 H   0  0  0  0  0  0  0  0  0  0  0  0
    6.8671   -1.0600    0.0000 H   0  0  0  0  0  0  0  0  0  0  0  0
    4.5981   -0.1300    0.0000 H   0  0  0  0  0  0  0  0  0  0  0  0
    7.5947    0.2249    0.0000 H   0  0  0  0  0  0  0  0  0  0  0  0
    6.7976    0.2249    0.0000 H   0  0  0  0  0  0  0  0  0  0  0  0
    4.0611   -2.0600    0.0000 H   0  0  0  0  0  0  0  0  0  0  0  0
    6.9501    2.2500    0.0000 H   0  0  0  0  0  0  0  0  0  0  0  0
    6.3301    2.8700    0.0000 H   0  0  0  0  0  0  0  0  0  0  0  0
    5.7101    2.2500    0.0000 H   0  0  0  0  0  0  0  0  0  0  0  0
    2.3100    0.2869    0.0000 H   0  0  0  0  0  0  0  0  0  0  0  0
    1.4631    0.0600    0.0000 H   0  0  0  0  0  0  0  0  0  0  0  0
    1.6900   -0.7869    0.0000 H   0  0  0  0  0  0  0  0  0  0  0  0
    9.4842   -1.2869    0.0000 H   0  0  0  0  0  0  0  0  0  0  0  0
   10.3312   -1.0600    0.0000 H   0  0  0  0  0  0  0  0  0  0  0  0
   10.1042   -0.2131    0.0000 H   0  0  0  0  0  0  0  0  0  0  0  0
  1  9  1  0  0  0  0
  1 13  1  0  0  0  0
  2  8  1  0  0  0  0
  2 14  1  0  0  0  0
  3 10  1  0  0  0  0
  3 15  1  0  0  0  0
  4 11  1  0  0  0  0
  4 16  1  0  0  0  0
  5 14  2  0  0  0  0
  6 15  2  0  0  0  0
  7 16  2  0  0  0  0
  8  9  1  0  0  0  0
  8 10  1  0  0  0  0
  8 20  1  0  0  0  0
  9 11  1  0  0  0  0
  9 21  1  0  0  0  0
 10 12  1  0  0  0  0
 10 22  1  0  0  0  0
 11 23  1  0  0  0  0
 11 24  1  0  0  0  0
 12 13  2  0  0  0  0
 12 25  1  0  0  0  0
 14 17  1  0  0  0  0
 15 18  1  0  0  0  0
 16 19  1  0  0  0  0
 17 26  1  0  0  0  0
 17 27  1  0  0  0  0
 17 28  1  0  0  0  0
 18 29  1  0  0  0  0
 18 30  1  0  0  0  0
 18 31  1  0  0  0  0
 19 32  1  0  0  0  0
 19 33  1  0  0  0  0
 19 34  1  0  0  0  0
M  CHG  1  13   1
M  END
> <PUBCHEM_COMPOUND_CID>
134853746

> <PUBCHEM_COMPOUND_CANONICALIZED>
1

> <PUBCHEM_CACTVS_COMPLEXITY>
388

> <PUBCHEM_CACTVS_HBOND_ACCEPTOR>
7

> <PUBCHEM_CACTVS_HBOND_DONOR>
0

> <PUBCHEM_CACTVS_ROTATABLE_BOND>
7

> <PUBCHEM_CACTVS_SUBSKEYS>
AAADccBwOAAAAAAAAAAAAAAAAAAAAAAAAAAgAAAAAAAAAAAAAAAAGgAAAAAACBSggAICCAAABACIACDSCAAACAAgIAAAAAAAAAgBBAIAIAACAAAFwAACIADAAAAAAAAAAAAAAAAAAAAAAAAAAAAAAAAAAA==

> <PUBCHEM_IUPAC_OPENEYE_NAME>
(3,4-diacetoxy-2,3,4,6-tetrahydropyran-6-ylium-2-yl)methyl acetate

> <PUBCHEM_IUPAC_CAS_NAME>
acetic acid (3,4-diacetyloxy-2,3,4,6-tetrahydropyran-6-ylium-2-yl)methyl ester

> <PUBCHEM_IUPAC_NAME_MARKUP>
(3,4-diacetyloxy-2,3,4,6-tetrahydropyran-6-ylium-2-yl)methyl acetate

> <PUBCHEM_IUPAC_NAME>
(3,4-diacetyloxy-2,3,4,6-tetrahydropyran-6-ylium-2-yl)methyl acetate

> <PUBCHEM_IUPAC_SYSTEMATIC_NAME>
(3,4-diacetyloxy-2,3,4,6-tetrahydropyran-6-ylium-2-yl)methyl ethanoate

> <PUBCHEM_IUPAC_TRADITIONAL_NAME>
acetic acid (3,4-diacetoxy-2,3,4,6-tetrahydropyran-6-ylium-2-yl)methyl ester

> <PUBCHEM_IUPAC_INCHI>
InChI=1S/C12H15O7/c1-7(13)17-6-11-12(19-9(3)15)10(4-5-16-11)18-8(2)14/h4,10-12H,6H2,1-3H3/q+1

> <PUBCHEM_IUPAC_INCHIKEY>
PBEZKAQKWBJXQF-UHFFFAOYSA-N

> <PUBCHEM_XLOGP3_AA>
0.2

> <PUBCHEM_EXACT_MASS>
271.08177781

> <PUBCHEM_MOLECULAR_FORMULA>
C12H15O7+

> <PUBCHEM_MOLECULAR_WEIGHT>
271.24

> <PUBCHEM_OPENEYE_CAN_SMILES>
CC(=O)OCC1C(C(C=[C+]O1)OC(=O)C)OC(=O)C

> <PUBCHEM_OPENEYE_ISO_SMILES>
CC(=O)OCC1C(C(C=[C+]O1)OC(=O)C)OC(=O)C

> <PUBCHEM_CACTVS_TPSA>
88.1

> <PUBCHEM_MONOISOTOPIC_WEIGHT>
271.08177781

> <PUBCHEM_TOTAL_CHARGE>
1

> <PUBCHEM_HEAVY_ATOM_COUNT>
19

> <PUBCHEM_ATOM_DEF_STEREO_COUNT>
0

> <PUBCHEM_ATOM_UDEF_STEREO_COUNT>
3

> <PUBCHEM_BOND_DEF_STEREO_COUNT>
0

> <PUBCHEM_BOND_UDEF_STEREO_COUNT>
0

> <PUBCHEM_ISOTOPIC_ATOM_COUNT>
0

> <PUBCHEM_COMPONENT_COUNT>
1

> <PUBCHEM_CACTVS_TAUTO_COUNT>
-1

> <PUBCHEM_COORDINATE_TYPE>
1
5
255

> <PUBCHEM_BONDANNOTATIONS>
8  2  3
10  3  3
9  11  3

$$$$
