 
  -OEChem-10192103592D

 25 25  0     1  0  0  0  0  0999 V2000
    4.6261    0.4594    0.0000 S   0  0  0  0  0  0  0  0  0  0  0  0
    4.2601   -2.5794    0.0000 S   0  0  0  0  0  0  0  0  0  0  0  0
    5.5202   -1.3194    0.0000 S   0  0  0  0  0  0  0  0  0  0  0  0
    4.1261    1.3254    0.0000 O   0  0  0  0  0  0  0  0  0  0  0  0
    5.1261   -0.4066    0.0000 O   0  0  0  0  0  0  0  0  0  0  0  0
    2.0000   -1.3194    0.0000 O   0  0  0  0  0  0  0  0  0  0  0  0
    2.0280    1.9594    0.0000 O   0  0  0  0  0  0  0  0  0  0  0  0
    3.7601    1.9594    0.0000 O   0  0  0  0  0  0  0  0  0  0  0  0
    3.7601   -0.0406    0.0000 N   0  0  3  0  0  0  0  0  0  0  0  0
    3.7601   -1.0406    0.0000 N   0  0  0  0  0  0  0  0  0  0  0  0
    2.8940    0.4594    0.0000 C   0  0  0  0  0  0  0  0  0  0  0  0
    2.9511   -1.6284    0.0000 C   0  0  0  0  0  0  0  0  0  0  0  0
    3.2601   -2.5794    0.0000 C   0  0  0  0  0  0  0  0  0  0  0  0
    4.5691   -1.6284    0.0000 C   0  0  0  0  0  0  0  0  0  0  0  0
    5.4921    0.9594    0.0000 C   0  0  0  0  0  0  0  0  0  0  0  0
    2.8940    1.4594    0.0000 C   0  0  0  0  0  0  0  0  0  0  0  0
    6.3582    0.4594    0.0000 C   0  0  0  0  0  0  0  0  0  0  0  0
    2.2835    0.5671    0.0000 H   0  0  0  0  0  0  0  0  0  0  0  0
    2.6820   -0.1232    0.0000 H   0  0  0  0  0  0  0  0  0  0  0  0
    2.6536   -2.7083    0.0000 H   0  0  0  0  0  0  0  0  0  0  0  0
    3.3249   -3.1960    0.0000 H   0  0  0  0  0  0  0  0  0  0  0  0
    5.4921    1.5794    0.0000 H   0  0  0  0  0  0  0  0  0  0  0  0
    6.3582   -0.1606    0.0000 H   0  0  0  0  0  0  0  0  0  0  0  0
    6.8951    0.7694    0.0000 H   0  0  0  0  0  0  0  0  0  0  0  0
    2.0280    2.5794    0.0000 H   0  0  0  0  0  0  0  0  0  0  0  0
  1  4  2  0  0  0  0
  1  5  2  0  0  0  0
  1  9  1  0  0  0  0
  1 15  1  0  0  0  0
  2 13  1  0  0  0  0
  2 14  1  0  0  0  0
  3 14  2  0  0  0  0
  6 12  2  0  0  0  0
  7 16  1  0  0  0  0
  7 25  1  0  0  0  0
  8 16  2  0  0  0  0
  9 10  1  0  0  0  0
  9 11  1  0  0  0  0
 10 12  1  0  0  0  0
 10 14  1  0  0  0  0
 11 16  1  0  0  0  0
 11 18  1  0  0  0  0
 11 19  1  0  0  0  0
 12 13  1  0  0  0  0
 13 20  1  0  0  0  0
 13 21  1  0  0  0  0
 15 17  2  0  0  0  0
 15 22  1  0  0  0  0
 17 23  1  0  0  0  0
 17 24  1  0  0  0  0
M  END
> <PUBCHEM_COMPOUND_CID>
138956450

> <PUBCHEM_COMPOUND_CANONICALIZED>
1

> <PUBCHEM_CACTVS_COMPLEXITY>
480

> <PUBCHEM_CACTVS_HBOND_ACCEPTOR>
8

> <PUBCHEM_CACTVS_HBOND_DONOR>
1

> <PUBCHEM_CACTVS_ROTATABLE_BOND>
5

> <PUBCHEM_CACTVS_SUBSKEYS>
AAADccBjOABgAAAAAAAAAAAAAAAAAWAAAAAAAAAAAAAAAAAAAAAAHgQISAAAAADFwASACAIAAgqMAAGSGHAAAABAABgaAACAAAACAAAAAAAAAAAAAAAAAAAAAAAAAAAAAAAAAAAAAAAAAAAAAAAAAAAAAA==

> <PUBCHEM_IUPAC_OPENEYE_NAME>
2-[(4-oxo-2-thioxo-thiazolidin-3-yl)-vinylsulfonyl-amino]acetic acid

> <PUBCHEM_IUPAC_CAS_NAME>
2-[ethenylsulfonyl-(4-oxo-2-sulfanylidene-3-thiazolidinyl)amino]acetic acid

> <PUBCHEM_IUPAC_NAME_MARKUP>
2-[ethenylsulfonyl-(4-oxo-2-sulfanylidene-1,3-thiazolidin-3-yl)amino]acetic acid

> <PUBCHEM_IUPAC_NAME>
2-[ethenylsulfonyl-(4-oxo-2-sulfanylidene-1,3-thiazolidin-3-yl)amino]acetic acid

> <PUBCHEM_IUPAC_SYSTEMATIC_NAME>
2-[ethenylsulfonyl-(4-oxidanylidene-2-sulfanylidene-1,3-thiazolidin-3-yl)amino]ethanoic acid

> <PUBCHEM_IUPAC_TRADITIONAL_NAME>
2-[(4-keto-2-thioxo-thiazolidin-3-yl)-vinylsulfonyl-amino]acetic acid

> <PUBCHEM_IUPAC_INCHI>
InChI=1S/C7H8N2O5S3/c1-2-17(13,14)8(3-6(11)12)9-5(10)4-16-7(9)15/h2H,1,3-4H2,(H,11,12)

> <PUBCHEM_IUPAC_INCHIKEY>
BHISZSIXYIUFMT-UHFFFAOYSA-N

> <PUBCHEM_XLOGP3_AA>
0.4

> <PUBCHEM_EXACT_MASS>
295.95953488

> <PUBCHEM_MOLECULAR_FORMULA>
C7H8N2O5S3

> <PUBCHEM_MOLECULAR_WEIGHT>
296.4

> <PUBCHEM_OPENEYE_CAN_SMILES>
C=CS(=O)(=O)N(CC(=O)O)N1C(=O)CSC1=S

> <PUBCHEM_OPENEYE_ISO_SMILES>
C=CS(=O)(=O)N(CC(=O)O)N1C(=O)CSC1=S

> <PUBCHEM_CACTVS_TPSA>
161

> <PUBCHEM_MONOISOTOPIC_WEIGHT>
295.95953488

> <PUBCHEM_TOTAL_CHARGE>
0

> <PUBCHEM_HEAVY_ATOM_COUNT>
17

> <PUBCHEM_ATOM_DEF_STEREO_COUNT>
0

> <PUBCHEM_ATOM_UDEF_STEREO_COUNT>
0

> <PUBCHEM_BOND_DEF_STEREO_COUNT>
0

> <PUBCHEM_BOND_UDEF_STEREO_COUNT>
0

> <PUBCHEM_ISOTOPIC_ATOM_COUNT>
0

> <PUBCHEM_COMPONENT_COUNT>
1

> <PUBCHEM_CACTVS_TAUTO_COUNT>
-1

> <PUBCHEM_COORDINATE_TYPE>
1
5
255

$$$$
