 
  -OEChem-10192104322D

 40 41  0     1  0  0  0  0  0999 V2000
    4.7188   -0.8689    0.0000 O   0  0  0  0  0  0  0  0  0  0  0  0
    6.3946   -3.0270    0.0000 O   0  0  0  0  0  0  0  0  0  0  0  0
    2.3100   -1.9924    0.0000 O   0  0  0  0  0  0  0  0  0  0  0  0
    2.8622    1.4031    0.0000 O   0  0  0  0  0  0  0  0  0  0  0  0
    4.4746    0.7704    0.0000 O   0  0  0  0  0  0  0  0  0  0  0  0
    5.5006   -1.4924    0.0000 C   0  0  2  0  0  0  0  0  0  0  0  0
    5.5006   -2.4924    0.0000 C   0  0  1  0  0  0  0  0  0  0  0  0
    4.7188   -3.1158    0.0000 C   0  0  0  0  0  0  0  0  0  0  0  0
    6.3946   -0.9577    0.0000 C   0  0  0  0  0  0  0  0  0  0  0  0
    3.7439   -1.0914    0.0000 C   0  0  1  0  0  0  0  0  0  0  0  0
    3.7439   -2.8933    0.0000 C   0  0  0  0  0  0  0  0  0  0  0  0
    3.3100   -1.9924    0.0000 C   0  0  1  0  0  0  0  0  0  0  0  0
    7.3006   -1.4716    0.0000 C   0  0  0  0  0  0  0  0  0  0  0  0
    7.3006   -2.5132    0.0000 C   0  0  0  0  0  0  0  0  0  0  0  0
    3.1204   -0.3096    0.0000 C   0  0  0  0  0  0  0  0  0  0  0  0
    3.4857    0.6213    0.0000 C   0  0  0  0  0  0  0  0  0  0  0  0
    3.2276    2.3340    0.0000 C   0  0  0  0  0  0  0  0  0  0  0  0
    2.6041    3.1158    0.0000 C   0  0  0  0  0  0  0  0  0  0  0  0
    5.5576   -0.6443    0.0000 H   0  0  0  0  0  0  0  0  0  0  0  0
    5.5576   -3.3404    0.0000 H   0  0  0  0  0  0  0  0  0  0  0  0
    4.4498   -3.6744    0.0000 H   0  0  0  0  0  0  0  0  0  0  0  0
    5.2036   -3.5024    0.0000 H   0  0  0  0  0  0  0  0  0  0  0  0
    6.7882   -0.4787    0.0000 H   0  0  0  0  0  0  0  0  0  0  0  0
    5.9900   -0.4879    0.0000 H   0  0  0  0  0  0  0  0  0  0  0  0
    3.9487   -0.5062    0.0000 H   0  0  0  0  0  0  0  0  0  0  0  0
    3.1394   -3.0313    0.0000 H   0  0  0  0  0  0  0  0  0  0  0  0
    3.7439   -3.5133    0.0000 H   0  0  0  0  0  0  0  0  0  0  0  0
    2.9801   -1.4674    0.0000 H   0  0  0  0  0  0  0  0  0  0  0  0
    7.9115   -1.5776    0.0000 H   0  0  0  0  0  0  0  0  0  0  0  0
    7.5097   -0.8879    0.0000 H   0  0  0  0  0  0  0  0  0  0  0  0
    7.5097   -3.0969    0.0000 H   0  0  0  0  0  0  0  0  0  0  0  0
    7.9115   -2.4071    0.0000 H   0  0  0  0  0  0  0  0  0  0  0  0
    2.5914    0.0137    0.0000 H   0  0  0  0  0  0  0  0  0  0  0  0
    2.7102   -0.7744    0.0000 H   0  0  0  0  0  0  0  0  0  0  0  0
    2.0000   -2.5293    0.0000 H   0  0  0  0  0  0  0  0  0  0  0  0
    3.7566    2.0107    0.0000 H   0  0  0  0  0  0  0  0  0  0  0  0
    3.6378    2.7989    0.0000 H   0  0  0  0  0  0  0  0  0  0  0  0
    3.0888    3.5024    0.0000 H   0  0  0  0  0  0  0  0  0  0  0  0
    2.2175    3.6006    0.0000 H   0  0  0  0  0  0  0  0  0  0  0  0
    2.1194    2.7293    0.0000 H   0  0  0  0  0  0  0  0  0  0  0  0
  1  6  1  0  0  0  0
  1 10  1  0  0  0  0
  2  7  1  0  0  0  0
  2 14  1  0  0  0  0
 12  3  1  1  0  0  0
  3 35  1  0  0  0  0
  4 16  1  0  0  0  0
  4 17  1  0  0  0  0
  5 16  2  0  0  0  0
  6  7  1  0  0  0  0
  6  9  1  0  0  0  0
  6 19  1  6  0  0  0
  7  8  1  0  0  0  0
  7 20  1  1  0  0  0
  8 11  1  0  0  0  0
  8 21  1  0  0  0  0
  8 22  1  0  0  0  0
  9 13  1  0  0  0  0
  9 23  1  0  0  0  0
  9 24  1  0  0  0  0
 10 12  1  0  0  0  0
 10 15  1  1  0  0  0
 10 25  1  0  0  0  0
 11 12  1  0  0  0  0
 11 26  1  0  0  0  0
 11 27  1  0  0  0  0
 12 28  1  0  0  0  0
 13 14  1  0  0  0  0
 13 29  1  0  0  0  0
 13 30  1  0  0  0  0
 14 31  1  0  0  0  0
 14 32  1  0  0  0  0
 15 16  1  0  0  0  0
 15 33  1  0  0  0  0
 15 34  1  0  0  0  0
 17 18  1  0  0  0  0
 17 36  1  0  0  0  0
 17 37  1  0  0  0  0
 18 38  1  0  0  0  0
 18 39  1  0  0  0  0
 18 40  1  0  0  0  0
M  END
> <PUBCHEM_COMPOUND_CID>
101162052

> <PUBCHEM_COMPOUND_CANONICALIZED>
1

> <PUBCHEM_CACTVS_COMPLEXITY>
281

> <PUBCHEM_CACTVS_HBOND_ACCEPTOR>
5

> <PUBCHEM_CACTVS_HBOND_DONOR>
1

> <PUBCHEM_CACTVS_ROTATABLE_BOND>
4

> <PUBCHEM_CACTVS_SUBSKEYS>
AAADceBwOAAAAAAAAAAAAAAAAAAAAAAAAAAkAAAABIAAAAAAAAAAGgAACAAACBSggAICCAAABgAIAACQCAAAAAAAAAAAAAEAAAABEBYAAAACQAAFIAADAAHK6KyAAAAAAAAAAAAAAAAAAAAAAAAAAAAAAA==

> <PUBCHEM_IUPAC_OPENEYE_NAME>
ethyl 2-[(4aS,6R,7R,9aR)-7-hydroxy-3,4,4a,6,7,8,9,9a-octahydro-2H-pyrano[3,2-b]oxepin-6-yl]acetate

> <PUBCHEM_IUPAC_CAS_NAME>
2-[(4aS,6R,7R,9aR)-7-hydroxy-3,4,4a,6,7,8,9,9a-octahydro-2H-pyrano[3,2-b]oxepin-6-yl]acetic acid ethyl ester

> <PUBCHEM_IUPAC_NAME_MARKUP>
ethyl 2-[(4<I>a</I><I>S</I>,6<I>R</I>,7<I>R</I>,9<I>a</I><I>R</I>)-7-hydroxy-3,4,4<I>a</I>,6,7,8,9,9<I>a</I>-octahydro-2<I>H</I>-pyrano[3,2-b]oxepin-6-yl]acetate

> <PUBCHEM_IUPAC_NAME>
ethyl 2-[(4aS,6R,7R,9aR)-7-hydroxy-3,4,4a,6,7,8,9,9a-octahydro-2H-pyrano[3,2-b]oxepin-6-yl]acetate

> <PUBCHEM_IUPAC_SYSTEMATIC_NAME>
ethyl 2-[(4aS,6R,7R,9aR)-7-oxidanyl-3,4,4a,6,7,8,9,9a-octahydro-2H-pyrano[3,2-b]oxepin-6-yl]ethanoate

> <PUBCHEM_IUPAC_TRADITIONAL_NAME>
2-[(4aS,6R,7R,9aR)-7-hydroxy-3,4,4a,6,7,8,9,9a-octahydro-2H-pyrano[3,2-b]oxepin-6-yl]acetic acid ethyl ester

> <PUBCHEM_IUPAC_INCHI>
InChI=1S/C13H22O5/c1-2-16-13(15)8-12-9(14)5-6-10-11(18-12)4-3-7-17-10/h9-12,14H,2-8H2,1H3/t9-,10-,11+,12-/m1/s1

> <PUBCHEM_IUPAC_INCHIKEY>
UEMNWSOFXYVBBL-WISYIIOYSA-N

> <PUBCHEM_XLOGP3_AA>
0.7

> <PUBCHEM_EXACT_MASS>
258.14672380

> <PUBCHEM_MOLECULAR_FORMULA>
C13H22O5

> <PUBCHEM_MOLECULAR_WEIGHT>
258.31

> <PUBCHEM_OPENEYE_CAN_SMILES>
CCOC(=O)CC1C(CCC2C(O1)CCCO2)O

> <PUBCHEM_OPENEYE_ISO_SMILES>
CCOC(=O)C[C@@H]1[C@@H](CC[C@@H]2[C@@H](O1)CCCO2)O

> <PUBCHEM_CACTVS_TPSA>
65

> <PUBCHEM_MONOISOTOPIC_WEIGHT>
258.14672380

> <PUBCHEM_TOTAL_CHARGE>
0

> <PUBCHEM_HEAVY_ATOM_COUNT>
18

> <PUBCHEM_ATOM_DEF_STEREO_COUNT>
4

> <PUBCHEM_ATOM_UDEF_STEREO_COUNT>
0

> <PUBCHEM_BOND_DEF_STEREO_COUNT>
0

> <PUBCHEM_BOND_UDEF_STEREO_COUNT>
0

> <PUBCHEM_ISOTOPIC_ATOM_COUNT>
0

> <PUBCHEM_COMPONENT_COUNT>
1

> <PUBCHEM_CACTVS_TAUTO_COUNT>
-1

> <PUBCHEM_COORDINATE_TYPE>
1
5
255

> <PUBCHEM_BONDANNOTATIONS>
10  15  5
12  3  5
6  19  6
7  20  5

$$$$
