 
  -OEChem-10192104222D

 23 23  0     1  0  0  0  0  0999 V2000
    2.8090    0.0380    0.0000 O   0  0  0  0  0  0  0  0  0  0  0  0
    5.7281   -0.9704    0.0000 O   0  0  0  0  0  0  0  0  0  0  0  0
    4.0339   -1.3305    0.0000 O   0  0  0  0  0  0  0  0  0  0  0  0
    3.6180    0.6258    0.0000 C   0  0  3  0  0  0  0  0  0  0  0  0
    3.3090    1.5768    0.0000 C   0  0  0  0  0  0  0  0  0  0  0  0
    2.3090    1.5768    0.0000 C   0  0  0  0  0  0  0  0  0  0  0  0
    2.0000    0.6258    0.0000 C   0  0  0  0  0  0  0  0  0  0  0  0
    4.5691    0.3168    0.0000 C   0  0  0  0  0  0  0  0  0  0  0  0
    5.3122    0.9859    0.0000 C   0  0  0  0  0  0  0  0  0  0  0  0
    4.7770   -0.6614    0.0000 C   0  0  0  0  0  0  0  0  0  0  0  0
    6.2633    0.6769    0.0000 C   0  0  0  0  0  0  0  0  0  0  0  0
    3.7150    0.0134    0.0000 H   0  0  0  0  0  0  0  0  0  0  0  0
    3.9155    1.7058    0.0000 H   0  0  0  0  0  0  0  0  0  0  0  0
    3.2442    2.1934    0.0000 H   0  0  0  0  0  0  0  0  0  0  0  0
    2.3738    2.1934    0.0000 H   0  0  0  0  0  0  0  0  0  0  0  0
    1.7026    1.7058    0.0000 H   0  0  0  0  0  0  0  0  0  0  0  0
    1.4336    0.8780    0.0000 H   0  0  0  0  0  0  0  0  0  0  0  0
    1.6900    0.0889    0.0000 H   0  0  0  0  0  0  0  0  0  0  0  0
    5.1833    1.5924    0.0000 H   0  0  0  0  0  0  0  0  0  0  0  0
    6.0717    0.0872    0.0000 H   0  0  0  0  0  0  0  0  0  0  0  0
    6.8530    0.4853    0.0000 H   0  0  0  0  0  0  0  0  0  0  0  0
    6.4549    1.2665    0.0000 H   0  0  0  0  0  0  0  0  0  0  0  0
    5.8570   -1.5768    0.0000 H   0  0  0  0  0  0  0  0  0  0  0  0
  1  4  1  0  0  0  0
  1  7  1  0  0  0  0
  2 10  1  0  0  0  0
  2 23  1  0  0  0  0
  3 10  2  0  0  0  0
  4  5  1  0  0  0  0
  4  8  1  0  0  0  0
  4 12  1  0  0  0  0
  5  6  1  0  0  0  0
  5 13  1  0  0  0  0
  5 14  1  0  0  0  0
  6  7  1  0  0  0  0
  6 15  1  0  0  0  0
  6 16  1  0  0  0  0
  7 17  1  0  0  0  0
  7 18  1  0  0  0  0
  8  9  2  3  0  0  0
  8 10  1  0  0  0  0
  9 11  1  0  0  0  0
  9 19  1  0  0  0  0
 11 20  1  0  0  0  0
 11 21  1  0  0  0  0
 11 22  1  0  0  0  0
M  END
> <PUBCHEM_COMPOUND_CID>
57013479

> <PUBCHEM_COMPOUND_CANONICALIZED>
1

> <PUBCHEM_CACTVS_COMPLEXITY>
184

> <PUBCHEM_CACTVS_HBOND_ACCEPTOR>
3

> <PUBCHEM_CACTVS_HBOND_DONOR>
1

> <PUBCHEM_CACTVS_ROTATABLE_BOND>
2

> <PUBCHEM_CACTVS_SUBSKEYS>
AAADccBwMAAAAAAAAAAAAAAAAAAAASAAAAAAAAAAAAAAAAAAAAAAGgAACAAADBSggAICCAAABgCIAiDSCAAAAAAgAAAACAEAAEgABBYAIQACUAAFoAAIMYOISAAAAAAAAAAAAAAAAAAAAAAAAAAAAAAAAA==

> <PUBCHEM_IUPAC_OPENEYE_NAME>
2-tetrahydrofuran-2-ylbut-2-enoic acid

> <PUBCHEM_IUPAC_CAS_NAME>
2-(2-oxolanyl)-2-butenoic acid

> <PUBCHEM_IUPAC_NAME_MARKUP>
2-(oxolan-2-yl)but-2-enoic acid

> <PUBCHEM_IUPAC_NAME>
2-(oxolan-2-yl)but-2-enoic acid

> <PUBCHEM_IUPAC_SYSTEMATIC_NAME>
2-(oxolan-2-yl)but-2-enoic acid

> <PUBCHEM_IUPAC_TRADITIONAL_NAME>
2-(tetrahydrofuryl)but-2-enoic acid

> <PUBCHEM_IUPAC_INCHI>
InChI=1S/C8H12O3/c1-2-6(8(9)10)7-4-3-5-11-7/h2,7H,3-5H2,1H3,(H,9,10)

> <PUBCHEM_IUPAC_INCHIKEY>
IPDSXMYFERBPKS-UHFFFAOYSA-N

> <PUBCHEM_XLOGP3_AA>
0.8

> <PUBCHEM_EXACT_MASS>
156.078644241

> <PUBCHEM_MOLECULAR_FORMULA>
C8H12O3

> <PUBCHEM_MOLECULAR_WEIGHT>
156.18

> <PUBCHEM_OPENEYE_CAN_SMILES>
CC=C(C1CCCO1)C(=O)O

> <PUBCHEM_OPENEYE_ISO_SMILES>
CC=C(C1CCCO1)C(=O)O

> <PUBCHEM_CACTVS_TPSA>
46.5

> <PUBCHEM_MONOISOTOPIC_WEIGHT>
156.078644241

> <PUBCHEM_TOTAL_CHARGE>
0

> <PUBCHEM_HEAVY_ATOM_COUNT>
11

> <PUBCHEM_ATOM_DEF_STEREO_COUNT>
0

> <PUBCHEM_ATOM_UDEF_STEREO_COUNT>
1

> <PUBCHEM_BOND_DEF_STEREO_COUNT>
0

> <PUBCHEM_BOND_UDEF_STEREO_COUNT>
1

> <PUBCHEM_ISOTOPIC_ATOM_COUNT>
0

> <PUBCHEM_COMPONENT_COUNT>
1

> <PUBCHEM_CACTVS_TAUTO_COUNT>
-1

> <PUBCHEM_COORDINATE_TYPE>
1
5
255

> <PUBCHEM_BONDANNOTATIONS>
4  8  3
8  9  1

$$$$
