 
  -OEChem-10192104142D

 74 78  0     1  0  0  0  0  0999 V2000
    7.7857   -0.8457    0.0000 O   0  0  0  0  0  0  0  0  0  0  0  0
    6.3177   -3.0839    0.0000 O   0  0  0  0  0  0  0  0  0  0  0  0
    4.5576   -2.8051    0.0000 O   0  0  0  0  0  0  0  0  0  0  0  0
   10.0458   -2.1058    0.0000 O   0  0  0  0  0  0  0  0  0  0  0  0
    5.6454   -5.1530    0.0000 O   0  0  0  0  0  0  0  0  0  0  0  0
    3.4698   -5.1530    0.0000 O   0  0  0  0  0  0  0  0  0  0  0  0
   10.7747   -1.0548    0.0000 O   0  0  0  0  0  0  0  0  0  0  0  0
    4.2962   -0.0984    0.0000 O   0  0  0  0  0  0  0  0  0  0  0  0
   11.1368    2.3904    0.0000 O   0  0  0  0  0  0  0  0  0  0  0  0
    7.5652    2.7850    0.0000 O   0  0  0  0  0  0  0  0  0  0  0  0
    9.3735   -0.0367    0.0000 N   0  0  0  0  0  0  0  0  0  0  0  0
    5.9904   -0.4585    0.0000 N   0  0  0  0  0  0  0  0  0  0  0  0
    2.5896   -2.1058    0.0000 N   0  0  0  0  0  0  0  0  0  0  0  0
   10.9558    0.6678    0.0000 N   0  0  0  0  0  0  0  0  0  0  0  0
    7.4767   -1.7968    0.0000 C   0  0  1  0  0  0  0  0  0  0  0  0
    8.2857   -2.3845    0.0000 C   0  0  0  0  0  0  0  0  0  0  0  0
    6.5256   -2.1058    0.0000 C   0  0  2  0  0  0  0  0  0  0  0  0
    9.0947   -1.7968    0.0000 C   0  0  2  0  0  0  0  0  0  0  0  0
    8.7857   -0.8457    0.0000 C   0  0  1  0  0  0  0  0  0  0  0  0
    5.3667   -3.3929    0.0000 C   0  0  2  0  0  0  0  0  0  0  0  0
    5.0576   -4.3440    0.0000 C   0  0  1  0  0  0  0  0  0  0  0  0
    4.0576   -4.3440    0.0000 C   0  0  1  0  0  0  0  0  0  0  0  0
    3.7486   -3.3929    0.0000 C   0  0  1  0  0  0  0  0  0  0  0  0
    5.7825   -1.4366    0.0000 C   0  0  0  0  0  0  0  0  0  0  0  0
    2.7976   -3.0839    0.0000 C   0  0  0  0  0  0  0  0  0  0  0  0
   10.3680   -0.1412    0.0000 C   0  0  0  0  0  0  0  0  0  0  0  0
    8.9668    0.8769    0.0000 C   0  0  0  0  0  0  0  0  0  0  0  0
    5.2472    0.2106    0.0000 C   0  0  0  0  0  0  0  0  0  0  0  0
    9.5545    1.6859    0.0000 C   0  0  0  0  0  0  0  0  0  0  0  0
   10.5491    1.5814    0.0000 C   0  0  0  0  0  0  0  0  0  0  0  0
    5.4552    1.1888    0.0000 C   0  0  0  0  0  0  0  0  0  0  0  0
    6.4062    1.4978    0.0000 C   0  0  0  0  0  0  0  0  0  0  0  0
    4.7120    1.8579    0.0000 C   0  0  0  0  0  0  0  0  0  0  0  0
    6.6141    2.4760    0.0000 C   0  0  0  0  0  0  0  0  0  0  0  0
    4.9199    2.8361    0.0000 C   0  0  0  0  0  0  0  0  0  0  0  0
    5.8710    3.1451    0.0000 C   0  0  0  0  0  0  0  0  0  0  0  0
    7.7731    3.7631    0.0000 C   0  0  0  0  0  0  0  0  0  0  0  0
    8.7242    4.0721    0.0000 C   0  0  0  0  0  0  0  0  0  0  0  0
    7.0300    4.4322    0.0000 C   0  0  0  0  0  0  0  0  0  0  0  0
    8.9321    5.0503    0.0000 C   0  0  0  0  0  0  0  0  0  0  0  0
    7.2379    5.4104    0.0000 C   0  0  0  0  0  0  0  0  0  0  0  0
    8.1889    5.7194    0.0000 C   0  0  0  0  0  0  0  0  0  0  0  0
    6.8756   -1.1957    0.0000 H   0  0  0  0  0  0  0  0  0  0  0  0
    5.9360   -2.2974    0.0000 H   0  0  0  0  0  0  0  0  0  0  0  0
    7.8708   -2.8453    0.0000 H   0  0  0  0  0  0  0  0  0  0  0  0
    8.7006   -2.8453    0.0000 H   0  0  0  0  0  0  0  0  0  0  0  0
    9.5331   -1.3584    0.0000 H   0  0  0  0  0  0  0  0  0  0  0  0
    9.3981   -0.9427    0.0000 H   0  0  0  0  0  0  0  0  0  0  0  0
    5.8051   -3.8313    0.0000 H   0  0  0  0  0  0  0  0  0  0  0  0
    4.7762   -4.8964    0.0000 H   0  0  0  0  0  0  0  0  0  0  0  0
    3.4453   -4.2470    0.0000 H   0  0  0  0  0  0  0  0  0  0  0  0
    3.6516   -2.7806    0.0000 H   0  0  0  0  0  0  0  0  0  0  0  0
    5.2076   -1.2044    0.0000 H   0  0  0  0  0  0  0  0  0  0  0  0
    5.4539   -1.9624    0.0000 H   0  0  0  0  0  0  0  0  0  0  0  0
    2.1779   -3.1056    0.0000 H   0  0  0  0  0  0  0  0  0  0  0  0
    2.7113   -3.6979    0.0000 H   0  0  0  0  0  0  0  0  0  0  0  0
   10.1747   -2.7122    0.0000 H   0  0  0  0  0  0  0  0  0  0  0  0
    6.5800   -0.2669    0.0000 H   0  0  0  0  0  0  0  0  0  0  0  0
    5.3932   -5.7194    0.0000 H   0  0  0  0  0  0  0  0  0  0  0  0
    2.8532   -5.0882    0.0000 H   0  0  0  0  0  0  0  0  0  0  0  0
    8.3501    0.9417    0.0000 H   0  0  0  0  0  0  0  0  0  0  0  0
    2.0000   -1.9142    0.0000 H   0  0  0  0  0  0  0  0  0  0  0  0
    3.0504   -1.6909    0.0000 H   0  0  0  0  0  0  0  0  0  0  0  0
   11.5724    0.6030    0.0000 H   0  0  0  0  0  0  0  0  0  0  0  0
    9.3024    2.2523    0.0000 H   0  0  0  0  0  0  0  0  0  0  0  0
    6.8670    1.0829    0.0000 H   0  0  0  0  0  0  0  0  0  0  0  0
    4.1224    1.6663    0.0000 H   0  0  0  0  0  0  0  0  0  0  0  0
    4.4592    3.2509    0.0000 H   0  0  0  0  0  0  0  0  0  0  0  0
    5.9999    3.7515    0.0000 H   0  0  0  0  0  0  0  0  0  0  0  0
    9.1849    3.6573    0.0000 H   0  0  0  0  0  0  0  0  0  0  0  0
    6.4403    4.2406    0.0000 H   0  0  0  0  0  0  0  0  0  0  0  0
    9.5217    5.2419    0.0000 H   0  0  0  0  0  0  0  0  0  0  0  0
    6.7771    5.8252    0.0000 H   0  0  0  0  0  0  0  0  0  0  0  0
    8.3178    6.3259    0.0000 H   0  0  0  0  0  0  0  0  0  0  0  0
  1 15  1  0  0  0  0
  1 19  1  0  0  0  0
 17  2  1  1  0  0  0
 20  2  1  1  0  0  0
  3 20  1  0  0  0  0
  3 23  1  0  0  0  0
 18  4  1  6  0  0  0
  4 57  1  0  0  0  0
 21  5  1  6  0  0  0
  5 59  1  0  0  0  0
 22  6  1  6  0  0  0
  6 60  1  0  0  0  0
  7 26  2  0  0  0  0
  8 28  2  0  0  0  0
  9 30  2  0  0  0  0
 10 34  1  0  0  0  0
 10 37  1  0  0  0  0
 19 11  1  1  0  0  0
 11 26  1  0  0  0  0
 11 27  1  0  0  0  0
 12 24  1  0  0  0  0
 12 28  1  0  0  0  0
 12 58  1  0  0  0  0
 13 25  1  0  0  0  0
 13 62  1  0  0  0  0
 13 63  1  0  0  0  0
 14 26  1  0  0  0  0
 14 30  1  0  0  0  0
 14 64  1  0  0  0  0
 15 16  1  0  0  0  0
 15 17  1  0  0  0  0
 15 43  1  6  0  0  0
 16 18  1  0  0  0  0
 16 45  1  0  0  0  0
 16 46  1  0  0  0  0
 17 24  1  0  0  0  0
 17 44  1  0  0  0  0
 18 19  1  0  0  0  0
 18 47  1  0  0  0  0
 19 48  1  0  0  0  0
 20 21  1  0  0  0  0
 20 49  1  0  0  0  0
 21 22  1  0  0  0  0
 21 50  1  0  0  0  0
 22 23  1  0  0  0  0
 22 51  1  0  0  0  0
 23 25  1  1  0  0  0
 23 52  1  0  0  0  0
 24 53  1  0  0  0  0
 24 54  1  0  0  0  0
 25 55  1  0  0  0  0
 25 56  1  0  0  0  0
 27 29  2  0  0  0  0
 27 61  1  0  0  0  0
 28 31  1  0  0  0  0
 29 30  1  0  0  0  0
 29 65  1  0  0  0  0
 31 32  2  0  0  0  0
 31 33  1  0  0  0  0
 32 34  1  0  0  0  0
 32 66  1  0  0  0  0
 33 35  2  0  0  0  0
 33 67  1  0  0  0  0
 34 36  2  0  0  0  0
 35 36  1  0  0  0  0
 35 68  1  0  0  0  0
 36 69  1  0  0  0  0
 37 38  2  0  0  0  0
 37 39  1  0  0  0  0
 38 40  1  0  0  0  0
 38 70  1  0  0  0  0
 39 41  2  0  0  0  0
 39 71  1  0  0  0  0
 40 42  2  0  0  0  0
 40 72  1  0  0  0  0
 41 42  1  0  0  0  0
 41 73  1  0  0  0  0
 42 74  1  0  0  0  0
M  END
> <PUBCHEM_COMPOUND_CID>
44273240

> <PUBCHEM_COMPOUND_CANONICALIZED>
1

> <PUBCHEM_CACTVS_COMPLEXITY>
994

> <PUBCHEM_CACTVS_HBOND_ACCEPTOR>
11

> <PUBCHEM_CACTVS_HBOND_DONOR>
6

> <PUBCHEM_CACTVS_ROTATABLE_BOND>
10

> <PUBCHEM_CACTVS_SUBSKEYS>
AAADcfB7vAAAAAAAAAAAAAAAAAAAASJAAAAwYIAAAAAAAAABQAAAHgAQCAAADBTxmAcxDoPABgCIAiFWUACCCAAkIgAIiIEODMifNjKEtRuveSjv1zOfqcf6+B6OAAABAAAAAAAAAAIAAAAAAAAAAAAAAA==

> <PUBCHEM_IUPAC_OPENEYE_NAME>
N-[(2S)-2-[(2S,3R,4S,5R)-5-(aminomethyl)-3,4-dihydroxy-tetrahydrofuran-2-yl]oxy-2-[(2S,4R,5R)-5-(2,4-dioxopyrimidin-1-yl)-4-hydroxy-tetrahydrofuran-2-yl]ethyl]-3-phenoxy-benzamide

> <PUBCHEM_IUPAC_CAS_NAME>
N-[(2S)-2-[[(2S,3R,4S,5R)-5-(aminomethyl)-3,4-dihydroxy-2-oxolanyl]oxy]-2-[(2S,4R,5R)-5-(2,4-dioxo-1-pyrimidinyl)-4-hydroxy-2-oxolanyl]ethyl]-3-phenoxybenzamide

> <PUBCHEM_IUPAC_NAME_MARKUP>
<I>N</I>-[(2<I>S</I>)-2-[(2<I>S</I>,3<I>R</I>,4<I>S</I>,5<I>R</I>)-5-(aminomethyl)-3,4-dihydroxyoxolan-2-yl]oxy-2-[(2<I>S</I>,4<I>R</I>,5<I>R</I>)-5-(2,4-dioxopyrimidin-1-yl)-4-hydroxyoxolan-2-yl]ethyl]-3-phenoxybenzamide

> <PUBCHEM_IUPAC_NAME>
N-[(2S)-2-[(2S,3R,4S,5R)-5-(aminomethyl)-3,4-dihydroxyoxolan-2-yl]oxy-2-[(2S,4R,5R)-5-(2,4-dioxopyrimidin-1-yl)-4-hydroxyoxolan-2-yl]ethyl]-3-phenoxybenzamide

> <PUBCHEM_IUPAC_SYSTEMATIC_NAME>
N-[(2S)-2-[(2S,3R,4S,5R)-5-(aminomethyl)-3,4-bis(oxidanyl)oxolan-2-yl]oxy-2-[(2S,4R,5R)-5-[2,4-bis(oxidanylidene)pyrimidin-1-yl]-4-oxidanyl-oxolan-2-yl]ethyl]-3-phenoxy-benzamide

> <PUBCHEM_IUPAC_TRADITIONAL_NAME>
N-[(2S)-2-[(2S,3R,4S,5R)-5-(aminomethyl)-3,4-dihydroxy-tetrahydrofuran-2-yl]oxy-2-[(2S,4R,5R)-5-(2,4-diketopyrimidin-1-yl)-4-hydroxy-tetrahydrofuran-2-yl]ethyl]-3-phenoxy-benzamide

> <PUBCHEM_IUPAC_INCHI>
InChI=1S/C28H32N4O10/c29-13-20-23(35)24(36)27(41-20)42-21(19-12-18(33)26(40-19)32-10-9-22(34)31-28(32)38)14-30-25(37)15-5-4-8-17(11-15)39-16-6-2-1-3-7-16/h1-11,18-21,23-24,26-27,33,35-36H,12-14,29H2,(H,30,37)(H,31,34,38)/t18-,19+,20-,21+,23-,24-,26-,27+/m1/s1

> <PUBCHEM_IUPAC_INCHIKEY>
WBZJVQCPQBHRKY-NGGDQPKYSA-N

> <PUBCHEM_XLOGP3_AA>
-0.5

> <PUBCHEM_EXACT_MASS>
584.21184323

> <PUBCHEM_MOLECULAR_FORMULA>
C28H32N4O10

> <PUBCHEM_MOLECULAR_WEIGHT>
584.6

> <PUBCHEM_OPENEYE_CAN_SMILES>
C1C(C(OC1C(CNC(=O)C2=CC(=CC=C2)OC3=CC=CC=C3)OC4C(C(C(O4)CN)O)O)N5C=CC(=O)NC5=O)O

> <PUBCHEM_OPENEYE_ISO_SMILES>
C1[C@H]([C@@H](O[C@@H]1[C@H](CNC(=O)C2=CC(=CC=C2)OC3=CC=CC=C3)O[C@H]4[C@@H]([C@@H]([C@H](O4)CN)O)O)N5C=CC(=O)NC5=O)O

> <PUBCHEM_CACTVS_TPSA>
202

> <PUBCHEM_MONOISOTOPIC_WEIGHT>
584.21184323

> <PUBCHEM_TOTAL_CHARGE>
0

> <PUBCHEM_HEAVY_ATOM_COUNT>
42

> <PUBCHEM_ATOM_DEF_STEREO_COUNT>
8

> <PUBCHEM_ATOM_UDEF_STEREO_COUNT>
0

> <PUBCHEM_BOND_DEF_STEREO_COUNT>
0

> <PUBCHEM_BOND_UDEF_STEREO_COUNT>
0

> <PUBCHEM_ISOTOPIC_ATOM_COUNT>
0

> <PUBCHEM_COMPONENT_COUNT>
1

> <PUBCHEM_CACTVS_TAUTO_COUNT>
-1

> <PUBCHEM_COORDINATE_TYPE>
1
5
255

> <PUBCHEM_BONDANNOTATIONS>
19  11  5
11  26  8
11  27  8
14  26  8
14  30  8
15  43  6
17  2  5
20  2  5
23  25  5
27  29  8
29  30  8
31  32  8
31  33  8
32  34  8
33  35  8
34  36  8
35  36  8
37  38  8
37  39  8
38  40  8
39  41  8
18  4  6
40  42  8
41  42  8
21  5  6
22  6  6

$$$$
