 
  -OEChem-10192103352D

 60 62  0     1  0  0  0  0  0999 V2000
    8.5991   -0.5000    0.0000 O   0  0  0  0  0  0  0  0  0  0  0  0
    5.1350    0.5000    0.0000 O   0  0  0  0  0  0  0  0  0  0  0  0
    6.8671    0.5000    0.0000 O   0  0  0  0  0  0  0  0  0  0  0  0
    6.8671   -2.5000    0.0000 O   0  0  0  0  0  0  0  0  0  0  0  0
   10.3312   -0.5000    0.0000 O   0  0  0  0  0  0  0  0  0  0  0  0
    8.5991   -3.5000    0.0000 O   0  0  0  0  0  0  0  0  0  0  0  0
   10.3312   -2.5000    0.0000 O   0  0  0  0  0  0  0  0  0  0  0  0
    6.8671    2.5000    0.0000 O   0  0  0  0  0  0  0  0  0  0  0  0
    5.1350    3.5000    0.0000 O   0  0  0  0  0  0  0  0  0  0  0  0
    3.4030    2.5000    0.0000 O   0  0  0  0  0  0  0  0  0  0  0  0
    2.5369    1.0000    0.0000 O   0  0  0  0  0  0  0  0  0  0  0  0
   13.7953    2.5000    0.0000 O   0  0  0  0  0  0  0  0  0  0  0  0
    8.5991    1.5000    0.0000 N   0  0  0  0  0  0  0  0  0  0  0  0
    7.7331   -1.0000    0.0000 C   0  0  1  0  0  0  0  0  0  0  0  0
    7.7331   -2.0000    0.0000 C   0  0  2  0  0  0  0  0  0  0  0  0
    8.5991   -2.5000    0.0000 C   0  0  1  0  0  0  0  0  0  0  0  0
    9.4651   -2.0000    0.0000 C   0  0  2  0  0  0  0  0  0  0  0  0
    6.0010    2.0000    0.0000 C   0  0  2  0  0  0  0  0  0  0  0  0
    5.1350    2.5000    0.0000 C   0  0  2  0  0  0  0  0  0  0  0  0
    6.0010    1.0000    0.0000 C   0  0  1  0  0  0  0  0  0  0  0  0
    4.2690    2.0000    0.0000 C   0  0  1  0  0  0  0  0  0  0  0  0
    4.2690    1.0000    0.0000 C   0  0  1  0  0  0  0  0  0  0  0  0
    9.4651   -1.0000    0.0000 C   0  0  1  0  0  0  0  0  0  0  0  0
    6.8671   -0.5000    0.0000 C   0  0  0  0  0  0  0  0  0  0  0  0
    3.4030    0.5000    0.0000 C   0  0  0  0  0  0  0  0  0  0  0  0
   10.3312    0.5000    0.0000 C   0  0  1  0  0  0  0  0  0  0  0  0
   11.1972    1.0000    0.0000 C   0  0  0  0  0  0  0  0  0  0  0  0
    9.4651    1.0000    0.0000 C   0  0  0  0  0  0  0  0  0  0  0  0
   11.1972    2.0000    0.0000 C   0  0  0  0  0  0  0  0  0  0  0  0
   12.0632    0.5000    0.0000 C   0  0  0  0  0  0  0  0  0  0  0  0
   12.0632    2.5000    0.0000 C   0  0  0  0  0  0  0  0  0  0  0  0
   12.9292    1.0000    0.0000 C   0  0  0  0  0  0  0  0  0  0  0  0
   12.9292    2.0000    0.0000 C   0  0  0  0  0  0  0  0  0  0  0  0
    7.7331   -0.3800    0.0000 H   0  0  0  0  0  0  0  0  0  0  0  0
    7.7331   -2.6200    0.0000 H   0  0  0  0  0  0  0  0  0  0  0  0
    9.1360   -2.8100    0.0000 H   0  0  0  0  0  0  0  0  0  0  0  0
    9.4651   -2.6200    0.0000 H   0  0  0  0  0  0  0  0  0  0  0  0
    6.0010    2.6200    0.0000 H   0  0  0  0  0  0  0  0  0  0  0  0
    4.5981    2.8100    0.0000 H   0  0  0  0  0  0  0  0  0  0  0  0
    6.5380    1.3100    0.0000 H   0  0  0  0  0  0  0  0  0  0  0  0
    4.2690    2.6200    0.0000 H   0  0  0  0  0  0  0  0  0  0  0  0
    4.2690    0.3800    0.0000 H   0  0  0  0  0  0  0  0  0  0  0  0
   10.0021   -1.3100    0.0000 H   0  0  0  0  0  0  0  0  0  0  0  0
    6.2565   -0.3923    0.0000 H   0  0  0  0  0  0  0  0  0  0  0  0
    6.6550   -1.0826    0.0000 H   0  0  0  0  0  0  0  0  0  0  0  0
    3.0044    0.0251    0.0000 H   0  0  0  0  0  0  0  0  0  0  0  0
    3.8015    0.0251    0.0000 H   0  0  0  0  0  0  0  0  0  0  0  0
    6.3301   -2.1900    0.0000 H   0  0  0  0  0  0  0  0  0  0  0  0
    8.0622   -3.8100    0.0000 H   0  0  0  0  0  0  0  0  0  0  0  0
   10.3312   -3.1200    0.0000 H   0  0  0  0  0  0  0  0  0  0  0  0
    6.8671    3.1200    0.0000 H   0  0  0  0  0  0  0  0  0  0  0  0
    4.5981    3.8100    0.0000 H   0  0  0  0  0  0  0  0  0  0  0  0
    3.4030    3.1200    0.0000 H   0  0  0  0  0  0  0  0  0  0  0  0
    9.7942    0.1900    0.0000 H   0  0  0  0  0  0  0  0  0  0  0  0
    2.0000    0.6900    0.0000 H   0  0  0  0  0  0  0  0  0  0  0  0
   10.6603    2.3100    0.0000 H   0  0  0  0  0  0  0  0  0  0  0  0
   12.0632   -0.1200    0.0000 H   0  0  0  0  0  0  0  0  0  0  0  0
   12.0632    3.1200    0.0000 H   0  0  0  0  0  0  0  0  0  0  0  0
   13.4662    0.6900    0.0000 H   0  0  0  0  0  0  0  0  0  0  0  0
   14.3322    2.1900    0.0000 H   0  0  0  0  0  0  0  0  0  0  0  0
  1 14  1  0  0  0  0
  1 23  1  0  0  0  0
  2 20  1  0  0  0  0
  2 22  1  0  0  0  0
 20  3  1  6  0  0  0
  3 24  1  0  0  0  0
 15  4  1  6  0  0  0
  4 48  1  0  0  0  0
 23  5  1  1  0  0  0
 26  5  1  6  0  0  0
 16  6  1  1  0  0  0
  6 49  1  0  0  0  0
 17  7  1  6  0  0  0
  7 50  1  0  0  0  0
 18  8  1  1  0  0  0
  8 51  1  0  0  0  0
 19  9  1  6  0  0  0
  9 52  1  0  0  0  0
 21 10  1  1  0  0  0
 10 53  1  0  0  0  0
 11 25  1  0  0  0  0
 11 55  1  0  0  0  0
 12 33  1  0  0  0  0
 12 60  1  0  0  0  0
 13 28  3  0  0  0  0
 14 15  1  0  0  0  0
 14 24  1  1  0  0  0
 14 34  1  0  0  0  0
 15 16  1  0  0  0  0
 15 35  1  0  0  0  0
 16 17  1  0  0  0  0
 16 36  1  0  0  0  0
 17 23  1  0  0  0  0
 17 37  1  0  0  0  0
 18 19  1  0  0  0  0
 18 20  1  0  0  0  0
 18 38  1  0  0  0  0
 19 21  1  0  0  0  0
 19 39  1  0  0  0  0
 20 40  1  0  0  0  0
 21 22  1  0  0  0  0
 21 41  1  0  0  0  0
 22 25  1  6  0  0  0
 22 42  1  0  0  0  0
 23 43  1  0  0  0  0
 24 44  1  0  0  0  0
 24 45  1  0  0  0  0
 25 46  1  0  0  0  0
 25 47  1  0  0  0  0
 26 27  1  0  0  0  0
 26 28  1  0  0  0  0
 26 54  1  0  0  0  0
 27 29  2  0  0  0  0
 27 30  1  0  0  0  0
 29 31  1  0  0  0  0
 29 56  1  0  0  0  0
 30 32  2  0  0  0  0
 30 57  1  0  0  0  0
 31 33  2  0  0  0  0
 31 58  1  0  0  0  0
 32 33  1  0  0  0  0
 32 59  1  0  0  0  0
M  END
> <PUBCHEM_COMPOUND_CID>
102004053

> <PUBCHEM_COMPOUND_CANONICALIZED>
1

> <PUBCHEM_CACTVS_COMPLEXITY>
667

> <PUBCHEM_CACTVS_HBOND_ACCEPTOR>
13

> <PUBCHEM_CACTVS_HBOND_DONOR>
8

> <PUBCHEM_CACTVS_ROTATABLE_BOND>
7

> <PUBCHEM_CACTVS_SUBSKEYS>
AAADceB6PAAAAAAAAAAAAAAAAAAAAAAAAAA0SIAAAAAAAAABAAAAHgAACAAADBSxmAMwDoAABgCQBiBCAAACAAAgIAAIiAAGCIgZtiKCMRqicAAlwBEPuA/A4KwOIAAAAAAAAABAAAAAAAAAAAAAAAAAAA==

> <PUBCHEM_IUPAC_OPENEYE_NAME>
(2S)-2-(4-hydroxyphenyl)-2-[(2R,3R,4S,5S,6R)-3,4,5-trihydroxy-6-[[(2R,3R,4S,5S,6R)-3,4,5-trihydroxy-6-(hydroxymethyl)tetrahydropyran-2-yl]oxymethyl]tetrahydropyran-2-yl]oxy-acetonitrile

> <PUBCHEM_IUPAC_CAS_NAME>
(2S)-2-(4-hydroxyphenyl)-2-[[(2R,3R,4S,5S,6R)-3,4,5-trihydroxy-6-[[(2R,3R,4S,5S,6R)-3,4,5-trihydroxy-6-(hydroxymethyl)-2-oxanyl]oxymethyl]-2-oxanyl]oxy]acetonitrile

> <PUBCHEM_IUPAC_NAME_MARKUP>
(2<I>S</I>)-2-(4-hydroxyphenyl)-2-[(2<I>R</I>,3<I>R</I>,4<I>S</I>,5<I>S</I>,6<I>R</I>)-3,4,5-trihydroxy-6-[[(2<I>R</I>,3<I>R</I>,4<I>S</I>,5<I>S</I>,6<I>R</I>)-3,4,5-trihydroxy-6-(hydroxymethyl)oxan-2-yl]oxymethyl]oxan-2-yl]oxyacetonitrile

> <PUBCHEM_IUPAC_NAME>
(2S)-2-(4-hydroxyphenyl)-2-[(2R,3R,4S,5S,6R)-3,4,5-trihydroxy-6-[[(2R,3R,4S,5S,6R)-3,4,5-trihydroxy-6-(hydroxymethyl)oxan-2-yl]oxymethyl]oxan-2-yl]oxyacetonitrile

> <PUBCHEM_IUPAC_SYSTEMATIC_NAME>
(2S)-2-[(2R,3R,4S,5S,6R)-6-[[(2R,3R,4S,5S,6R)-6-(hydroxymethyl)-3,4,5-tris(oxidanyl)oxan-2-yl]oxymethyl]-3,4,5-tris(oxidanyl)oxan-2-yl]oxy-2-(4-hydroxyphenyl)ethanenitrile

> <PUBCHEM_IUPAC_TRADITIONAL_NAME>
(2S)-2-(4-hydroxyphenyl)-2-[(2R,3R,4S,5S,6R)-3,4,5-trihydroxy-6-[[(2R,3R,4S,5S,6R)-3,4,5-trihydroxy-6-methylol-tetrahydropyran-2-yl]oxymethyl]tetrahydropyran-2-yl]oxy-acetonitrile

> <PUBCHEM_IUPAC_INCHI>
InChI=1S/C20H27NO12/c21-5-10(8-1-3-9(23)4-2-8)31-20-18(29)16(27)14(25)12(33-20)7-30-19-17(28)15(26)13(24)11(6-22)32-19/h1-4,10-20,22-29H,6-7H2/t10-,11-,12-,13-,14-,15+,16+,17-,18-,19-,20-/m1/s1

> <PUBCHEM_IUPAC_INCHIKEY>
FPYKJQSRWXKDRY-UUGBRMIUSA-N

> <PUBCHEM_XLOGP3_AA>
-3.1

> <PUBCHEM_EXACT_MASS>
473.15332530

> <PUBCHEM_MOLECULAR_FORMULA>
C20H27NO12

> <PUBCHEM_MOLECULAR_WEIGHT>
473.4

> <PUBCHEM_OPENEYE_CAN_SMILES>
C1=CC(=CC=C1C(C#N)OC2C(C(C(C(O2)COC3C(C(C(C(O3)CO)O)O)O)O)O)O)O

> <PUBCHEM_OPENEYE_ISO_SMILES>
C1=CC(=CC=C1[C@@H](C#N)O[C@H]2[C@@H]([C@H]([C@@H]([C@H](O2)CO[C@H]3[C@@H]([C@H]([C@@H]([C@H](O3)CO)O)O)O)O)O)O)O

> <PUBCHEM_CACTVS_TPSA>
223

> <PUBCHEM_MONOISOTOPIC_WEIGHT>
473.15332530

> <PUBCHEM_TOTAL_CHARGE>
0

> <PUBCHEM_HEAVY_ATOM_COUNT>
33

> <PUBCHEM_ATOM_DEF_STEREO_COUNT>
11

> <PUBCHEM_ATOM_UDEF_STEREO_COUNT>
0

> <PUBCHEM_BOND_DEF_STEREO_COUNT>
0

> <PUBCHEM_BOND_UDEF_STEREO_COUNT>
0

> <PUBCHEM_ISOTOPIC_ATOM_COUNT>
0

> <PUBCHEM_COMPONENT_COUNT>
1

> <PUBCHEM_CACTVS_TAUTO_COUNT>
-1

> <PUBCHEM_COORDINATE_TYPE>
1
5
255

> <PUBCHEM_BONDANNOTATIONS>
21  10  5
14  24  5
22  25  6
27  29  8
27  30  8
29  31  8
20  3  6
30  32  8
31  33  8
32  33  8
15  4  6
23  5  5
26  5  6
16  6  5
17  7  6
18  8  5
19  9  6

$$$$
