 
  -OEChem-10192104082D

 78 79  0     1  0  0  0  0  0999 V2000
    6.0010   -6.0000    0.0000 O   0  0  0  0  0  0  0  0  0  0  0  0
    7.7331   -4.0000    0.0000 O   0  0  0  0  0  0  0  0  0  0  0  0
    5.1350   -4.5000    0.0000 O   0  0  0  0  0  0  0  0  0  0  0  0
    7.7331   -7.0000    0.0000 O   0  0  0  0  0  0  0  0  0  0  0  0
    9.4651   -4.0000    0.0000 O   0  0  0  0  0  0  0  0  0  0  0  0
    4.2690   -7.0000    0.0000 O   0  0  0  0  0  0  0  0  0  0  0  0
    9.4651   -6.0000    0.0000 O   0  0  0  0  0  0  0  0  0  0  0  0
    2.5369   -6.0000    0.0000 O   0  0  0  0  0  0  0  0  0  0  0  0
    2.5369   -4.0000    0.0000 O   0  0  0  0  0  0  0  0  0  0  0  0
    6.0010   -3.0000    0.0000 O   0  0  0  0  0  0  0  0  0  0  0  0
    5.1350   -2.5000    0.0000 O   0  0  0  0  0  0  0  0  0  0  0  0
   10.3312   -1.5000    0.0000 O   0  0  0  0  0  0  0  0  0  0  0  0
   12.0632    0.5000    0.0000 O   0  0  0  0  0  0  0  0  0  0  0  0
   12.9292    3.0000    0.0000 O   0  0  0  0  0  0  0  0  0  0  0  0
   14.6613    5.0000    0.0000 O   0  0  0  0  0  0  0  0  0  0  0  0
    6.8671   -5.5000    0.0000 C   0  0  1  0  0  0  0  0  0  0  0  0
    7.7331   -6.0000    0.0000 C   0  0  1  0  0  0  0  0  0  0  0  0
    6.8671   -4.5000    0.0000 C   0  0  1  0  0  0  0  0  0  0  0  0
    5.1350   -5.5000    0.0000 C   0  0  1  0  0  0  0  0  0  0  0  0
    4.2690   -6.0000    0.0000 C   0  0  1  0  0  0  0  0  0  0  0  0
    8.5991   -5.5000    0.0000 C   0  0  2  0  0  0  0  0  0  0  0  0
    3.4030   -5.5000    0.0000 C   0  0  2  0  0  0  0  0  0  0  0  0
    3.4030   -4.5000    0.0000 C   0  0  2  0  0  0  0  0  0  0  0  0
    4.2690   -4.0000    0.0000 C   0  0  1  0  0  0  0  0  0  0  0  0
    8.5991   -4.5000    0.0000 C   0  0  1  0  0  0  0  0  0  0  0  0
    6.0010   -4.0000    0.0000 C   0  0  0  0  0  0  0  0  0  0  0  0
    4.2690   -3.0000    0.0000 C   0  0  0  0  0  0  0  0  0  0  0  0
    9.4651   -3.0000    0.0000 C   0  0  0  0  0  0  0  0  0  0  0  0
   10.3312   -2.5000    0.0000 C   0  0  0  0  0  0  0  0  0  0  0  0
   11.1972   -1.0000    0.0000 C   0  0  0  0  0  0  0  0  0  0  0  0
   11.1972    0.0000    0.0000 C   0  0  0  0  0  0  0  0  0  0  0  0
   12.0632    1.5000    0.0000 C   0  0  0  0  0  0  0  0  0  0  0  0
   12.9292    2.0000    0.0000 C   0  0  0  0  0  0  0  0  0  0  0  0
   13.7953    3.5000    0.0000 C   0  0  0  0  0  0  0  0  0  0  0  0
   13.7953    4.5000    0.0000 C   0  0  0  0  0  0  0  0  0  0  0  0
   14.6613    6.0000    0.0000 C   0  0  0  0  0  0  0  0  0  0  0  0
   15.5273    6.5000    0.0000 C   0  0  0  0  0  0  0  0  0  0  0  0
   16.3933    7.0000    0.0000 C   0  0  0  0  0  0  0  0  0  0  0  0
    6.3301   -5.1900    0.0000 H   0  0  0  0  0  0  0  0  0  0  0  0
    7.1962   -6.3100    0.0000 H   0  0  0  0  0  0  0  0  0  0  0  0
    6.8671   -3.8800    0.0000 H   0  0  0  0  0  0  0  0  0  0  0  0
    5.1350   -6.1200    0.0000 H   0  0  0  0  0  0  0  0  0  0  0  0
    3.7320   -6.3100    0.0000 H   0  0  0  0  0  0  0  0  0  0  0  0
    8.5991   -6.1200    0.0000 H   0  0  0  0  0  0  0  0  0  0  0  0
    2.8660   -5.1900    0.0000 H   0  0  0  0  0  0  0  0  0  0  0  0
    3.4030   -3.8800    0.0000 H   0  0  0  0  0  0  0  0  0  0  0  0
    4.8059   -3.6900    0.0000 H   0  0  0  0  0  0  0  0  0  0  0  0
    8.5991   -3.8800    0.0000 H   0  0  0  0  0  0  0  0  0  0  0  0
    5.3905   -3.8923    0.0000 H   0  0  0  0  0  0  0  0  0  0  0  0
    5.7890   -4.5826    0.0000 H   0  0  0  0  0  0  0  0  0  0  0  0
    4.0569   -2.4174    0.0000 H   0  0  0  0  0  0  0  0  0  0  0  0
    3.6584   -3.1077    0.0000 H   0  0  0  0  0  0  0  0  0  0  0  0
    8.2700   -7.3100    0.0000 H   0  0  0  0  0  0  0  0  0  0  0  0
    3.7320   -7.3100    0.0000 H   0  0  0  0  0  0  0  0  0  0  0  0
   10.0021   -5.6900    0.0000 H   0  0  0  0  0  0  0  0  0  0  0  0
    2.0000   -5.6900    0.0000 H   0  0  0  0  0  0  0  0  0  0  0  0
    2.5369   -3.3800    0.0000 H   0  0  0  0  0  0  0  0  0  0  0  0
    9.2531   -2.4174    0.0000 H   0  0  0  0  0  0  0  0  0  0  0  0
    8.8546   -3.1077    0.0000 H   0  0  0  0  0  0  0  0  0  0  0  0
    6.5380   -2.6900    0.0000 H   0  0  0  0  0  0  0  0  0  0  0  0
    5.1350   -1.8800    0.0000 H   0  0  0  0  0  0  0  0  0  0  0  0
   10.5432   -3.0826    0.0000 H   0  0  0  0  0  0  0  0  0  0  0  0
   10.9417   -2.3923    0.0000 H   0  0  0  0  0  0  0  0  0  0  0  0
   11.4092   -1.5826    0.0000 H   0  0  0  0  0  0  0  0  0  0  0  0
   11.8078   -0.8923    0.0000 H   0  0  0  0  0  0  0  0  0  0  0  0
   10.9851    0.5826    0.0000 H   0  0  0  0  0  0  0  0  0  0  0  0
   10.5866   -0.1077    0.0000 H   0  0  0  0  0  0  0  0  0  0  0  0
   11.8512    2.0826    0.0000 H   0  0  0  0  0  0  0  0  0  0  0  0
   11.4526    1.3923    0.0000 H   0  0  0  0  0  0  0  0  0  0  0  0
   13.1413    1.4174    0.0000 H   0  0  0  0  0  0  0  0  0  0  0  0
   13.5398    2.1077    0.0000 H   0  0  0  0  0  0  0  0  0  0  0  0
   14.0073    2.9174    0.0000 H   0  0  0  0  0  0  0  0  0  0  0  0
   14.4058    3.6077    0.0000 H   0  0  0  0  0  0  0  0  0  0  0  0
   13.5832    5.0826    0.0000 H   0  0  0  0  0  0  0  0  0  0  0  0
   13.1847    4.3923    0.0000 H   0  0  0  0  0  0  0  0  0  0  0  0
   14.4492    6.5826    0.0000 H   0  0  0  0  0  0  0  0  0  0  0  0
   14.0507    5.8923    0.0000 H   0  0  0  0  0  0  0  0  0  0  0  0
   16.9303    7.3100    0.0000 H   0  0  0  0  0  0  0  0  0  0  0  0
 16  1  1  6  0  0  0
 19  1  1  6  0  0  0
  2 18  1  0  0  0  0
  2 25  1  0  0  0  0
  3 19  1  0  0  0  0
  3 24  1  0  0  0  0
 17  4  1  1  0  0  0
  4 53  1  0  0  0  0
 25  5  1  1  0  0  0
  5 28  1  0  0  0  0
 20  6  1  6  0  0  0
  6 54  1  0  0  0  0
 21  7  1  6  0  0  0
  7 55  1  0  0  0  0
 22  8  1  1  0  0  0
  8 56  1  0  0  0  0
 23  9  1  1  0  0  0
  9 57  1  0  0  0  0
 10 26  1  0  0  0  0
 10 60  1  0  0  0  0
 11 27  1  0  0  0  0
 11 61  1  0  0  0  0
 12 29  1  0  0  0  0
 12 30  1  0  0  0  0
 13 31  1  0  0  0  0
 13 32  1  0  0  0  0
 14 33  1  0  0  0  0
 14 34  1  0  0  0  0
 15 35  1  0  0  0  0
 15 36  1  0  0  0  0
 16 17  1  0  0  0  0
 16 18  1  0  0  0  0
 16 39  1  0  0  0  0
 17 21  1  0  0  0  0
 17 40  1  0  0  0  0
 18 26  1  1  0  0  0
 18 41  1  0  0  0  0
 19 20  1  0  0  0  0
 19 42  1  0  0  0  0
 20 22  1  0  0  0  0
 20 43  1  0  0  0  0
 21 25  1  0  0  0  0
 21 44  1  0  0  0  0
 22 23  1  0  0  0  0
 22 45  1  0  0  0  0
 23 24  1  0  0  0  0
 23 46  1  0  0  0  0
 24 27  1  1  0  0  0
 24 47  1  0  0  0  0
 25 48  1  0  0  0  0
 26 49  1  0  0  0  0
 26 50  1  0  0  0  0
 27 51  1  0  0  0  0
 27 52  1  0  0  0  0
 28 29  1  0  0  0  0
 28 58  1  0  0  0  0
 28 59  1  0  0  0  0
 29 62  1  0  0  0  0
 29 63  1  0  0  0  0
 30 31  1  0  0  0  0
 30 64  1  0  0  0  0
 30 65  1  0  0  0  0
 31 66  1  0  0  0  0
 31 67  1  0  0  0  0
 32 33  1  0  0  0  0
 32 68  1  0  0  0  0
 32 69  1  0  0  0  0
 33 70  1  0  0  0  0
 33 71  1  0  0  0  0
 34 35  1  0  0  0  0
 34 72  1  0  0  0  0
 34 73  1  0  0  0  0
 35 74  1  0  0  0  0
 35 75  1  0  0  0  0
 36 37  1  0  0  0  0
 36 76  1  0  0  0  0
 36 77  1  0  0  0  0
 37 38  3  0  0  0  0
 38 78  1  0  0  0  0
M  END
> <PUBCHEM_COMPOUND_CID>
132559841

> <PUBCHEM_COMPOUND_CANONICALIZED>
1

> <PUBCHEM_CACTVS_COMPLEXITY>
674

> <PUBCHEM_CACTVS_HBOND_ACCEPTOR>
15

> <PUBCHEM_CACTVS_HBOND_DONOR>
7

> <PUBCHEM_CACTVS_ROTATABLE_BOND>
18

> <PUBCHEM_CACTVS_SUBSKEYS>
AAADcfB4PAAAAAAAAAAAAAAAAAAAAAAAAAAkSAAAAAAAAAAAAAAAGgAACAAACBSwgAMACAAABgBAGAAAAAAAAAAAAAAAAAAAAAAREAIAAAAiQAAFAAAHAAHAYAwAAAAAAAAAAAAAAAAAAAAAAAAAAAAAAA==

> <PUBCHEM_IUPAC_OPENEYE_NAME>
(2R,3R,4S,5R,6R)-2-[(2R,3S,4R,5R,6R)-4,5-dihydroxy-2-(hydroxymethyl)-6-[2-[2-[2-(2-prop-2-ynoxyethoxy)ethoxy]ethoxy]ethoxy]tetrahydropyran-3-yl]oxy-6-(hydroxymethyl)tetrahydropyran-3,4,5-triol

> <PUBCHEM_IUPAC_CAS_NAME>
(2R,3R,4S,5R,6R)-2-[[(2R,3S,4R,5R,6R)-4,5-dihydroxy-2-(hydroxymethyl)-6-[2-[2-[2-(2-prop-2-ynoxyethoxy)ethoxy]ethoxy]ethoxy]-3-oxanyl]oxy]-6-(hydroxymethyl)oxane-3,4,5-triol

> <PUBCHEM_IUPAC_NAME_MARKUP>
(2<I>R</I>,3<I>R</I>,4<I>S</I>,5<I>R</I>,6<I>R</I>)-2-[(2<I>R</I>,3<I>S</I>,4<I>R</I>,5<I>R</I>,6<I>R</I>)-4,5-dihydroxy-2-(hydroxymethyl)-6-[2-[2-[2-(2-prop-2-ynoxyethoxy)ethoxy]ethoxy]ethoxy]oxan-3-yl]oxy-6-(hydroxymethyl)oxane-3,4,5-triol

> <PUBCHEM_IUPAC_NAME>
(2R,3R,4S,5R,6R)-2-[(2R,3S,4R,5R,6R)-4,5-dihydroxy-2-(hydroxymethyl)-6-[2-[2-[2-(2-prop-2-ynoxyethoxy)ethoxy]ethoxy]ethoxy]oxan-3-yl]oxy-6-(hydroxymethyl)oxane-3,4,5-triol

> <PUBCHEM_IUPAC_SYSTEMATIC_NAME>
(2R,3R,4S,5R,6R)-2-(hydroxymethyl)-6-[(2R,3S,4R,5R,6R)-2-(hydroxymethyl)-4,5-bis(oxidanyl)-6-[2-[2-[2-(2-prop-2-ynoxyethoxy)ethoxy]ethoxy]ethoxy]oxan-3-yl]oxy-oxane-3,4,5-triol

> <PUBCHEM_IUPAC_TRADITIONAL_NAME>
(2R,3R,4S,5R,6R)-2-[(2R,3S,4R,5R,6R)-4,5-dihydroxy-2-methylol-6-[2-[2-[2-(2-propargyloxyethoxy)ethoxy]ethoxy]ethoxy]tetrahydropyran-3-yl]oxy-6-methylol-tetrahydropyran-3,4,5-triol

> <PUBCHEM_IUPAC_INCHI>
InChI=1S/C23H40O15/c1-2-3-31-4-5-32-6-7-33-8-9-34-10-11-35-22-20(30)18(28)21(15(13-25)37-22)38-23-19(29)17(27)16(26)14(12-24)36-23/h1,14-30H,3-13H2/t14-,15-,16+,17+,18-,19-,20-,21-,22-,23-/m1/s1

> <PUBCHEM_IUPAC_INCHIKEY>
ZBHOAYAMZGNBFB-SJNYIVSASA-N

> <PUBCHEM_XLOGP3_AA>
-4.7

> <PUBCHEM_EXACT_MASS>
556.23672056

> <PUBCHEM_MOLECULAR_FORMULA>
C23H40O15

> <PUBCHEM_MOLECULAR_WEIGHT>
556.6

> <PUBCHEM_OPENEYE_CAN_SMILES>
C#CCOCCOCCOCCOCCOC1C(C(C(C(O1)CO)OC2C(C(C(C(O2)CO)O)O)O)O)O

> <PUBCHEM_OPENEYE_ISO_SMILES>
C#CCOCCOCCOCCOCCO[C@H]1[C@@H]([C@H]([C@@H]([C@H](O1)CO)O[C@@H]2[C@@H]([C@H]([C@H]([C@H](O2)CO)O)O)O)O)O

> <PUBCHEM_CACTVS_TPSA>
215

> <PUBCHEM_MONOISOTOPIC_WEIGHT>
556.23672056

> <PUBCHEM_TOTAL_CHARGE>
0

> <PUBCHEM_HEAVY_ATOM_COUNT>
38

> <PUBCHEM_ATOM_DEF_STEREO_COUNT>
10

> <PUBCHEM_ATOM_UDEF_STEREO_COUNT>
0

> <PUBCHEM_BOND_DEF_STEREO_COUNT>
0

> <PUBCHEM_BOND_UDEF_STEREO_COUNT>
0

> <PUBCHEM_ISOTOPIC_ATOM_COUNT>
0

> <PUBCHEM_COMPONENT_COUNT>
1

> <PUBCHEM_CACTVS_TAUTO_COUNT>
-1

> <PUBCHEM_COORDINATE_TYPE>
1
5
255

> <PUBCHEM_BONDANNOTATIONS>
16  1  6
19  1  6
18  26  5
24  27  5
17  4  5
25  5  5
20  6  6
21  7  6
22  8  5
23  9  5

$$$$
