 
  -OEChem-10192103292D

 82 85  0     1  0  0  0  0  0999 V2000
    8.2591    1.4382    0.0000 O   0  0  0  0  0  0  0  0  0  0  0  0
    9.1469   -3.0932    0.0000 O   0  0  0  0  0  0  0  0  0  0  0  0
    3.7320   -3.1141    0.0000 O   0  0  0  0  0  0  0  0  0  0  0  0
    6.5270    1.4382    0.0000 O   0  0  0  0  0  0  0  0  0  0  0  0
   12.9603    3.5070    0.0000 O   0  0  0  0  0  0  0  0  0  0  0  0
    2.8718   -1.6108    0.0000 O   0  0  0  0  0  0  0  0  0  0  0  0
   13.3175    1.8121    0.0000 O   0  0  0  0  0  0  0  0  0  0  0  0
    9.1251   -0.0618    0.0000 C   0  0  3  0  0  0  0  0  0  0  0  0
    9.1251   -1.0618    0.0000 C   0  0  3  0  0  0  0  0  0  0  0  0
    8.2591   -1.5618    0.0000 C   0  0  3  0  0  0  0  0  0  0  0  0
    7.3931   -1.0618    0.0000 C   0  0  3  0  0  0  0  0  0  0  0  0
    6.4831   -1.5686    0.0000 C   0  0  3  0  0  0  0  0  0  0  0  0
   10.0713    0.2430    0.0000 C   0  0  3  0  0  0  0  0  0  0  0  0
    8.2591    0.4382    0.0000 C   0  0  3  0  0  0  0  0  0  0  0  0
    7.3931   -0.0618    0.0000 C   0  0  0  0  0  0  0  0  0  0  0  0
    6.4750   -2.6102    0.0000 C   0  0  3  0  0  0  0  0  0  0  0  0
   10.0713   -1.3665    0.0000 C   0  0  0  0  0  0  0  0  0  0  0  0
    8.2752   -2.6033    0.0000 C   0  0  3  0  0  0  0  0  0  0  0  0
   10.6550   -0.5618    0.0000 C   0  0  0  0  0  0  0  0  0  0  0  0
    7.3771   -3.1310    0.0000 C   0  0  0  0  0  0  0  0  0  0  0  0
    5.5562   -1.0045    0.0000 C   0  0  0  0  0  0  0  0  0  0  0  0
    9.1251    0.9382    0.0000 C   0  0  0  0  0  0  0  0  0  0  0  0
   10.3820    1.1935    0.0000 C   0  0  3  0  0  0  0  0  0  0  0  0
    5.5396   -3.1599    0.0000 C   0  0  0  0  0  0  0  0  0  0  0  0
    6.4908   -0.5686    0.0000 C   0  0  0  0  0  0  0  0  0  0  0  0
    4.6084   -1.5325    0.0000 C   0  0  0  0  0  0  0  0  0  0  0  0
    4.6000   -2.6174    0.0000 C   0  0  3  0  0  0  0  0  0  0  0  0
   11.3605    1.3997    0.0000 C   0  0  0  0  0  0  0  0  0  0  0  0
    9.7142    1.9378    0.0000 C   0  0  0  0  0  0  0  0  0  0  0  0
   11.6712    2.3502    0.0000 C   0  0  0  0  0  0  0  0  0  0  0  0
    7.3931    1.9382    0.0000 C   0  0  0  0  0  0  0  0  0  0  0  0
    7.3931    2.9382    0.0000 C   0  0  0  0  0  0  0  0  0  0  0  0
    2.8680   -2.6108    0.0000 C   0  0  0  0  0  0  0  0  0  0  0  0
   12.6497    2.5564    0.0000 C   0  0  0  0  0  0  0  0  0  0  0  0
    2.0000   -3.1074    0.0000 C   0  0  0  0  0  0  0  0  0  0  0  0
   13.9388    3.7132    0.0000 C   0  0  0  0  0  0  0  0  0  0  0  0
    9.1907   -1.6783    0.0000 H   0  0  0  0  0  0  0  0  0  0  0  0
    8.7984   -1.8676    0.0000 H   0  0  0  0  0  0  0  0  0  0  0  0
    7.9300   -0.7518    0.0000 H   0  0  0  0  0  0  0  0  0  0  0  0
   10.6838    0.3392    0.0000 H   0  0  0  0  0  0  0  0  0  0  0  0
    7.7222    0.7482    0.0000 H   0  0  0  0  0  0  0  0  0  0  0  0
    7.1810    0.5208    0.0000 H   0  0  0  0  0  0  0  0  0  0  0  0
    6.7825   -0.1694    0.0000 H   0  0  0  0  0  0  0  0  0  0  0  0
    6.4774   -3.2302    0.0000 H   0  0  0  0  0  0  0  0  0  0  0  0
    9.8203   -1.9334    0.0000 H   0  0  0  0  0  0  0  0  0  0  0  0
   10.6087   -1.6757    0.0000 H   0  0  0  0  0  0  0  0  0  0  0  0
    8.8079   -2.2861    0.0000 H   0  0  0  0  0  0  0  0  0  0  0  0
   11.1158   -0.9765    0.0000 H   0  0  0  0  0  0  0  0  0  0  0  0
   11.1158   -0.1470    0.0000 H   0  0  0  0  0  0  0  0  0  0  0  0
    6.9798   -3.6070    0.0000 H   0  0  0  0  0  0  0  0  0  0  0  0
    7.7781   -3.6039    0.0000 H   0  0  0  0  0  0  0  0  0  0  0  0
    5.9644   -0.5379    0.0000 H   0  0  0  0  0  0  0  0  0  0  0  0
    5.1663   -0.5225    0.0000 H   0  0  0  0  0  0  0  0  0  0  0  0
    9.7451    0.9382    0.0000 H   0  0  0  0  0  0  0  0  0  0  0  0
    9.1251    1.5582    0.0000 H   0  0  0  0  0  0  0  0  0  0  0  0
    8.5051    0.9382    0.0000 H   0  0  0  0  0  0  0  0  0  0  0  0
   10.5746    1.7828    0.0000 H   0  0  0  0  0  0  0  0  0  0  0  0
    5.1423   -3.6359    0.0000 H   0  0  0  0  0  0  0  0  0  0  0  0
    5.9406   -3.6328    0.0000 H   0  0  0  0  0  0  0  0  0  0  0  0
    7.1108   -0.5734    0.0000 H   0  0  0  0  0  0  0  0  0  0  0  0
    6.4956    0.0513    0.0000 H   0  0  0  0  0  0  0  0  0  0  0  0
    5.8708   -0.5639    0.0000 H   0  0  0  0  0  0  0  0  0  0  0  0
    4.4038   -0.9472    0.0000 H   0  0  0  0  0  0  0  0  0  0  0  0
    3.9967   -1.6339    0.0000 H   0  0  0  0  0  0  0  0  0  0  0  0
    4.0648   -2.3043    0.0000 H   0  0  0  0  0  0  0  0  0  0  0  0
   11.3811    0.7800    0.0000 H   0  0  0  0  0  0  0  0  0  0  0  0
   11.9743    1.3124    0.0000 H   0  0  0  0  0  0  0  0  0  0  0  0
    9.1541   -3.7132    0.0000 H   0  0  0  0  0  0  0  0  0  0  0  0
   10.1756    2.3519    0.0000 H   0  0  0  0  0  0  0  0  0  0  0  0
    9.3001    2.3993    0.0000 H   0  0  0  0  0  0  0  0  0  0  0  0
    9.2527    1.5237    0.0000 H   0  0  0  0  0  0  0  0  0  0  0  0
   11.6506    2.9699    0.0000 H   0  0  0  0  0  0  0  0  0  0  0  0
   11.0574    2.4376    0.0000 H   0  0  0  0  0  0  0  0  0  0  0  0
    8.0131    2.9382    0.0000 H   0  0  0  0  0  0  0  0  0  0  0  0
    7.3931    3.5582    0.0000 H   0  0  0  0  0  0  0  0  0  0  0  0
    6.7731    2.9382    0.0000 H   0  0  0  0  0  0  0  0  0  0  0  0
    1.6921   -2.5693    0.0000 H   0  0  0  0  0  0  0  0  0  0  0  0
    1.4619   -3.4154    0.0000 H   0  0  0  0  0  0  0  0  0  0  0  0
    2.3079   -3.6456    0.0000 H   0  0  0  0  0  0  0  0  0  0  0  0
   14.0667    3.1065    0.0000 H   0  0  0  0  0  0  0  0  0  0  0  0
   14.5455    3.8410    0.0000 H   0  0  0  0  0  0  0  0  0  0  0  0
   13.8110    4.3199    0.0000 H   0  0  0  0  0  0  0  0  0  0  0  0
  1 14  1  0  0  0  0
  1 31  1  0  0  0  0
  2 18  1  0  0  0  0
  2 68  1  0  0  0  0
  3 27  1  0  0  0  0
  3 33  1  0  0  0  0
  4 31  2  0  0  0  0
  5 34  1  0  0  0  0
  5 36  1  0  0  0  0
  6 33  2  0  0  0  0
  7 34  2  0  0  0  0
  8  9  1  0  0  0  0
  8 13  1  0  0  0  0
  8 14  1  0  0  0  0
  8 22  1  0  0  0  0
  9 10  1  0  0  0  0
  9 17  1  0  0  0  0
  9 37  1  0  0  0  0
 10 11  1  0  0  0  0
 10 18  1  0  0  0  0
 10 38  1  0  0  0  0
 11 12  1  0  0  0  0
 11 15  1  0  0  0  0
 11 39  1  0  0  0  0
 12 16  1  0  0  0  0
 12 21  1  0  0  0  0
 12 25  1  0  0  0  0
 13 19  1  0  0  0  0
 13 23  1  0  0  0  0
 13 40  1  0  0  0  0
 14 15  1  0  0  0  0
 14 41  1  0  0  0  0
 15 42  1  0  0  0  0
 15 43  1  0  0  0  0
 16 20  1  0  0  0  0
 16 24  1  0  0  0  0
 16 44  1  0  0  0  0
 17 19  1  0  0  0  0
 17 45  1  0  0  0  0
 17 46  1  0  0  0  0
 18 20  1  0  0  0  0
 18 47  1  0  0  0  0
 19 48  1  0  0  0  0
 19 49  1  0  0  0  0
 20 50  1  0  0  0  0
 20 51  1  0  0  0  0
 21 26  1  0  0  0  0
 21 52  1  0  0  0  0
 21 53  1  0  0  0  0
 22 54  1  0  0  0  0
 22 55  1  0  0  0  0
 22 56  1  0  0  0  0
 23 28  1  0  0  0  0
 23 29  1  0  0  0  0
 23 57  1  0  0  0  0
 24 27  1  0  0  0  0
 24 58  1  0  0  0  0
 24 59  1  0  0  0  0
 25 60  1  0  0  0  0
 25 61  1  0  0  0  0
 25 62  1  0  0  0  0
 26 27  1  0  0  0  0
 26 63  1  0  0  0  0
 26 64  1  0  0  0  0
 27 65  1  0  0  0  0
 28 30  1  0  0  0  0
 28 66  1  0  0  0  0
 28 67  1  0  0  0  0
 29 69  1  0  0  0  0
 29 70  1  0  0  0  0
 29 71  1  0  0  0  0
 30 34  1  0  0  0  0
 30 72  1  0  0  0  0
 30 73  1  0  0  0  0
 31 32  1  0  0  0  0
 32 74  1  0  0  0  0
 32 75  1  0  0  0  0
 32 76  1  0  0  0  0
 33 35  1  0  0  0  0
 35 77  1  0  0  0  0
 35 78  1  0  0  0  0
 35 79  1  0  0  0  0
 36 80  1  0  0  0  0
 36 81  1  0  0  0  0
 36 82  1  0  0  0  0
M  END
> <PUBCHEM_COMPOUND_CID>
14053616

> <PUBCHEM_COMPOUND_CANONICALIZED>
1

> <PUBCHEM_CACTVS_COMPLEXITY>
857

> <PUBCHEM_CACTVS_HBOND_ACCEPTOR>
7

> <PUBCHEM_CACTVS_HBOND_DONOR>
1

> <PUBCHEM_CACTVS_ROTATABLE_BOND>
9

> <PUBCHEM_CACTVS_SUBSKEYS>
AAADcfB4OAAAAAAAAAAAAAAAAAAAAYAAAAAwYMAAAAAAAGDAAAAAGgAACAAADxSggAICCAAABgAIAACQCAAAAAAAAAAAAAEAAAAAEBIAAAACQAAEAAAAAAGI6PyPgAAAAAAAAADAAAYAADAAAQAACAAAAA==

> <PUBCHEM_IUPAC_OPENEYE_NAME>
methyl 4-(3,12-diacetoxy-7-hydroxy-10,13-dimethyl-2,3,4,5,6,7,8,9,11,12,14,15,16,17-tetradecahydro-1H-cyclopenta[a]phenanthren-17-yl)pentanoate

> <PUBCHEM_IUPAC_CAS_NAME>
4-(3,12-diacetyloxy-7-hydroxy-10,13-dimethyl-2,3,4,5,6,7,8,9,11,12,14,15,16,17-tetradecahydro-1H-cyclopenta[a]phenanthren-17-yl)pentanoic acid methyl ester

> <PUBCHEM_IUPAC_NAME_MARKUP>
methyl 4-(3,12-diacetyloxy-7-hydroxy-10,13-dimethyl-2,3,4,5,6,7,8,9,11,12,14,15,16,17-tetradecahydro-1<I>H</I>-cyclopenta[a]phenanthren-17-yl)pentanoate

> <PUBCHEM_IUPAC_NAME>
methyl 4-(3,12-diacetyloxy-7-hydroxy-10,13-dimethyl-2,3,4,5,6,7,8,9,11,12,14,15,16,17-tetradecahydro-1H-cyclopenta[a]phenanthren-17-yl)pentanoate

> <PUBCHEM_IUPAC_SYSTEMATIC_NAME>
methyl 4-(3,12-diacetyloxy-10,13-dimethyl-7-oxidanyl-2,3,4,5,6,7,8,9,11,12,14,15,16,17-tetradecahydro-1H-cyclopenta[a]phenanthren-17-yl)pentanoate

> <PUBCHEM_IUPAC_TRADITIONAL_NAME>
4-(3,12-diacetoxy-7-hydroxy-10,13-dimethyl-2,3,4,5,6,7,8,9,11,12,14,15,16,17-tetradecahydro-1H-cyclopenta[a]phenanthren-17-yl)valeric acid methyl ester

> <PUBCHEM_IUPAC_INCHI>
InChI=1S/C29H46O7/c1-16(7-10-26(33)34-6)21-8-9-22-27-23(15-25(29(21,22)5)36-18(3)31)28(4)12-11-20(35-17(2)30)13-19(28)14-24(27)32/h16,19-25,27,32H,7-15H2,1-6H3

> <PUBCHEM_IUPAC_INCHIKEY>
VKAMWGFHTDGLCF-UHFFFAOYSA-N

> <PUBCHEM_XLOGP3_AA>
5.1

> <PUBCHEM_EXACT_MASS>
506.32435380

> <PUBCHEM_MOLECULAR_FORMULA>
C29H46O7

> <PUBCHEM_MOLECULAR_WEIGHT>
506.7

> <PUBCHEM_OPENEYE_CAN_SMILES>
CC(CCC(=O)OC)C1CCC2C1(C(CC3C2C(CC4C3(CCC(C4)OC(=O)C)C)O)OC(=O)C)C

> <PUBCHEM_OPENEYE_ISO_SMILES>
CC(CCC(=O)OC)C1CCC2C1(C(CC3C2C(CC4C3(CCC(C4)OC(=O)C)C)O)OC(=O)C)C

> <PUBCHEM_CACTVS_TPSA>
99.1

> <PUBCHEM_MONOISOTOPIC_WEIGHT>
506.32435380

> <PUBCHEM_TOTAL_CHARGE>
0

> <PUBCHEM_HEAVY_ATOM_COUNT>
36

> <PUBCHEM_ATOM_DEF_STEREO_COUNT>
0

> <PUBCHEM_ATOM_UDEF_STEREO_COUNT>
11

> <PUBCHEM_BOND_DEF_STEREO_COUNT>
0

> <PUBCHEM_BOND_UDEF_STEREO_COUNT>
0

> <PUBCHEM_ISOTOPIC_ATOM_COUNT>
0

> <PUBCHEM_COMPONENT_COUNT>
1

> <PUBCHEM_CACTVS_TAUTO_COUNT>
-1

> <PUBCHEM_COORDINATE_TYPE>
1
5
255

> <PUBCHEM_BONDANNOTATIONS>
14  1  3
10  18  3
11  15  3
12  25  3
13  19  3
16  24  3
18  2  3
23  29  3
27  3  3
8  22  3
9  17  3

$$$$
