 
  -OEChem-10192103402D

 34 35  0     1  0  0  0  0  0999 V2000
    3.2044   -2.7172    0.0000 P   0  0  3  0  0  0  0  0  0  0  0  0
    6.0957   -1.0616    0.0000 O   0  0  0  0  0  0  0  0  0  0  0  0
    4.1989   -2.8217    0.0000 O   0  0  0  0  0  0  0  0  0  0  0  0
    7.3690   -2.7172    0.0000 O   0  0  0  0  0  0  0  0  0  0  0  0
    7.0188    0.5262    0.0000 O   0  0  0  0  0  0  0  0  0  0  0  0
    2.6166   -3.5262    0.0000 O   0  0  0  0  0  0  0  0  0  0  0  0
    5.2867    3.5262    0.0000 O   0  0  0  0  0  0  0  0  0  0  0  0
    5.2867    0.5262    0.0000 N   0  0  0  0  0  0  0  0  0  0  0  0
    6.1527    2.0262    0.0000 N   0  0  0  0  0  0  0  0  0  0  0  0
    4.7867   -2.0127    0.0000 C   0  0  3  0  0  0  0  0  0  0  0  0
    4.4777   -1.0616    0.0000 C   0  0  0  0  0  0  0  0  0  0  0  0
    5.2867   -0.4738    0.0000 C   0  0  1  0  0  0  0  0  0  0  0  0
    5.7867   -2.0127    0.0000 C   0  0  1  0  0  0  0  0  0  0  0  0
    6.3745   -2.8217    0.0000 C   0  0  0  0  0  0  0  0  0  0  0  0
    4.4207    1.0262    0.0000 C   0  0  0  0  0  0  0  0  0  0  0  0
    6.1527    1.0262    0.0000 C   0  0  0  0  0  0  0  0  0  0  0  0
    4.4207    2.0262    0.0000 C   0  0  0  0  0  0  0  0  0  0  0  0
    5.2867    2.5262    0.0000 C   0  0  0  0  0  0  0  0  0  0  0  0
    3.5546    2.5262    0.0000 C   0  0  0  0  0  0  0  0  0  0  0  0
    5.0682   -2.5651    0.0000 H   0  0  0  0  0  0  0  0  0  0  0  0
    4.1677   -0.5247    0.0000 H   0  0  0  0  0  0  0  0  0  0  0  0
    3.9113   -1.3138    0.0000 H   0  0  0  0  0  0  0  0  0  0  0  0
    4.7343   -0.1924    0.0000 H   0  0  0  0  0  0  0  0  0  0  0  0
    6.3991   -1.9157    0.0000 H   0  0  0  0  0  0  0  0  0  0  0  0
    5.8172   -3.0935    0.0000 H   0  0  0  0  0  0  0  0  0  0  0  0
    6.5454   -3.4177    0.0000 H   0  0  0  0  0  0  0  0  0  0  0  0
    3.8837    0.7162    0.0000 H   0  0  0  0  0  0  0  0  0  0  0  0
    6.6897    2.3362    0.0000 H   0  0  0  0  0  0  0  0  0  0  0  0
    7.7334   -3.2188    0.0000 H   0  0  0  0  0  0  0  0  0  0  0  0
    2.9522   -2.1508    0.0000 H   0  0  0  0  0  0  0  0  0  0  0  0
    3.8646    3.0631    0.0000 H   0  0  0  0  0  0  0  0  0  0  0  0
    3.0177    2.8362    0.0000 H   0  0  0  0  0  0  0  0  0  0  0  0
    3.2446    1.9892    0.0000 H   0  0  0  0  0  0  0  0  0  0  0  0
    2.0000   -3.4614    0.0000 H   0  0  0  0  0  0  0  0  0  0  0  0
  1  3  1  0  0  0  0
  1  6  1  0  0  0  0
  1 30  1  0  0  0  0
  2 12  1  0  0  0  0
  2 13  1  0  0  0  0
  3 10  1  0  0  0  0
  4 14  1  0  0  0  0
  4 29  1  0  0  0  0
  5 16  2  0  0  0  0
  6 34  1  0  0  0  0
  7 18  2  0  0  0  0
 12  8  1  6  0  0  0
  8 15  1  0  0  0  0
  8 16  1  0  0  0  0
  9 16  1  0  0  0  0
  9 18  1  0  0  0  0
  9 28  1  0  0  0  0
 10 11  1  0  0  0  0
 10 13  1  0  0  0  0
 10 20  1  0  0  0  0
 11 12  1  0  0  0  0
 11 21  1  0  0  0  0
 11 22  1  0  0  0  0
 12 23  1  0  0  0  0
 13 14  1  6  0  0  0
 13 24  1  0  0  0  0
 14 25  1  0  0  0  0
 14 26  1  0  0  0  0
 15 17  2  0  0  0  0
 15 27  1  0  0  0  0
 17 18  1  0  0  0  0
 17 19  1  0  0  0  0
 19 31  1  0  0  0  0
 19 32  1  0  0  0  0
 19 33  1  0  0  0  0
M  END
> <PUBCHEM_COMPOUND_CID>
68185762

> <PUBCHEM_COMPOUND_CANONICALIZED>
1

> <PUBCHEM_CACTVS_COMPLEXITY>
415

> <PUBCHEM_CACTVS_HBOND_ACCEPTOR>
6

> <PUBCHEM_CACTVS_HBOND_DONOR>
3

> <PUBCHEM_CACTVS_ROTATABLE_BOND>
4

> <PUBCHEM_CACTVS_SUBSKEYS>
AAADccBzOAIAAAAAAAAAAAAAAAAAASAAAAAgAAAAAAAAAAAAAAAAHgAQCCAQDBThgAYDAAPABxCIAgFWUACAAAAAAAAAAAEIAECBEAIAgQAOQAAPByIDAMCwMAIAAAAAAAAAAAAAAAAAAAAAAAAAAAAAAA==

> <PUBCHEM_IUPAC_OPENEYE_NAME>
[(2R,5R)-2-(hydroxymethyl)-5-(5-methyl-2,4-dioxo-pyrimidin-1-yl)tetrahydrofuran-3-yl]oxyphosphinous acid

> <PUBCHEM_IUPAC_CAS_NAME>
[(2R,5R)-2-(hydroxymethyl)-5-(5-methyl-2,4-dioxo-1-pyrimidinyl)-3-oxolanyl]oxyphosphinous acid

> <PUBCHEM_IUPAC_NAME_MARKUP>
[(2<I>R</I>,5<I>R</I>)-2-(hydroxymethyl)-5-(5-methyl-2,4-dioxopyrimidin-1-yl)oxolan-3-yl]oxyphosphinous acid

> <PUBCHEM_IUPAC_NAME>
[(2R,5R)-2-(hydroxymethyl)-5-(5-methyl-2,4-dioxopyrimidin-1-yl)oxolan-3-yl]oxyphosphinous acid

> <PUBCHEM_IUPAC_SYSTEMATIC_NAME>
[(2R,5R)-2-(hydroxymethyl)-5-[5-methyl-2,4-bis(oxidanylidene)pyrimidin-1-yl]oxolan-3-yl]oxyphosphinous acid

> <PUBCHEM_IUPAC_TRADITIONAL_NAME>
[(2R,5R)-5-(2,4-diketo-5-methyl-pyrimidin-1-yl)-2-methylol-tetrahydrofuran-3-yl]oxyphosphinous acid

> <PUBCHEM_IUPAC_INCHI>
InChI=1S/C10H15N2O6P/c1-5-3-12(10(15)11-9(5)14)8-2-6(18-19-16)7(4-13)17-8/h3,6-8,13,16,19H,2,4H2,1H3,(H,11,14,15)/t6?,7-,8-,19?/m1/s1

> <PUBCHEM_IUPAC_INCHIKEY>
MUAVERYMLAWSHD-KLVCKLRESA-N

> <PUBCHEM_XLOGP3>
-1.4

> <PUBCHEM_EXACT_MASS>
290.06677320

> <PUBCHEM_MOLECULAR_FORMULA>
C10H15N2O6P

> <PUBCHEM_MOLECULAR_WEIGHT>
290.21

> <PUBCHEM_OPENEYE_CAN_SMILES>
CC1=CN(C(=O)NC1=O)C2CC(C(O2)CO)OPO

> <PUBCHEM_OPENEYE_ISO_SMILES>
CC1=CN(C(=O)NC1=O)[C@H]2CC([C@H](O2)CO)OPO

> <PUBCHEM_CACTVS_TPSA>
108

> <PUBCHEM_MONOISOTOPIC_WEIGHT>
290.06677320

> <PUBCHEM_TOTAL_CHARGE>
0

> <PUBCHEM_HEAVY_ATOM_COUNT>
19

> <PUBCHEM_ATOM_DEF_STEREO_COUNT>
2

> <PUBCHEM_ATOM_UDEF_STEREO_COUNT>
1

> <PUBCHEM_BOND_DEF_STEREO_COUNT>
0

> <PUBCHEM_BOND_UDEF_STEREO_COUNT>
0

> <PUBCHEM_ISOTOPIC_ATOM_COUNT>
0

> <PUBCHEM_COMPONENT_COUNT>
1

> <PUBCHEM_CACTVS_TAUTO_COUNT>
-1

> <PUBCHEM_COORDINATE_TYPE>
1
5
255

> <PUBCHEM_BONDANNOTATIONS>
13  14  6
15  17  8
17  18  8
10  3  3
12  8  6
8  15  8
8  16  8
9  16  8
9  18  8

$$$$
