 
  -OEChem-10192103522D

 60 62  0     1  0  0  0  0  0999 V2000
   11.9957    3.6882    0.0000 O   0  0  0  0  0  0  0  0  0  0  0  0
   12.3923   -0.3783    0.0000 O   0  0  0  0  0  0  0  0  0  0  0  0
   14.1621    1.0938    0.0000 O   0  0  0  0  0  0  0  0  0  0  0  0
   10.6603   -0.3783    0.0000 O   0  0  0  0  0  0  0  0  0  0  0  0
   14.9125    3.5702    0.0000 O   0  0  0  0  0  0  0  0  0  0  0  0
   15.8662    1.6149    0.0000 O   0  0  0  0  0  0  0  0  0  0  0  0
   12.3923   -2.3782    0.0000 O   0  0  0  0  0  0  0  0  0  0  0  0
   10.6603   -3.3782    0.0000 O   0  0  0  0  0  0  0  0  0  0  0  0
    8.9282   -2.3782    0.0000 O   0  0  0  0  0  0  0  0  0  0  0  0
    8.0622   -0.8783    0.0000 O   0  0  0  0  0  0  0  0  0  0  0  0
    6.3301   -1.8782    0.0000 O   0  0  0  0  0  0  0  0  0  0  0  0
    4.5981   -0.8783    0.0000 O   0  0  0  0  0  0  0  0  0  0  0  0
   12.3923    0.6217    0.0000 C   0  0  3  0  0  0  0  0  0  0  0  0
   12.9528    2.5481    0.0000 C   0  0  3  0  0  0  0  0  0  0  0  0
   12.2457    1.8410    0.0000 C   0  0  3  0  0  0  0  0  0  0  0  0
   14.4431    2.6873    0.0000 C   0  0  3  0  0  0  0  0  0  0  0  0
   11.2886    2.9811    0.0000 C   0  0  0  0  0  0  0  0  0  0  0  0
   14.8814    1.7885    0.0000 C   0  0  3  0  0  0  0  0  0  0  0  0
   11.5263   -0.8783    0.0000 C   0  0  3  0  0  0  0  0  0  0  0  0
   11.5263   -1.8782    0.0000 C   0  0  3  0  0  0  0  0  0  0  0  0
   10.6603   -2.3782    0.0000 C   0  0  3  0  0  0  0  0  0  0  0  0
    9.7942   -1.8782    0.0000 C   0  0  3  0  0  0  0  0  0  0  0  0
    9.7942   -0.8783    0.0000 C   0  0  3  0  0  0  0  0  0  0  0  0
    8.9282   -0.3783    0.0000 C   0  0  0  0  0  0  0  0  0  0  0  0
    7.1962   -0.3783    0.0000 C   0  0  0  0  0  0  0  0  0  0  0  0
    6.3301   -0.8783    0.0000 C   0  0  3  0  0  0  0  0  0  0  0  0
    5.4641   -0.3783    0.0000 C   0  0  0  0  0  0  0  0  0  0  0  0
    3.7320   -0.3783    0.0000 C   0  0  0  0  0  0  0  0  0  0  0  0
    2.8660   -0.8783    0.0000 C   0  0  0  0  0  0  0  0  0  0  0  0
    2.0000   -0.3783    0.0000 C   0  0  0  0  0  0  0  0  0  0  0  0
   11.7734    0.5847    0.0000 H   0  0  0  0  0  0  0  0  0  0  0  0
   13.1883    3.1216    0.0000 H   0  0  0  0  0  0  0  0  0  0  0  0
   12.6070    2.3449    0.0000 H   0  0  0  0  0  0  0  0  0  0  0  0
   15.0630    2.6765    0.0000 H   0  0  0  0  0  0  0  0  0  0  0  0
   10.8631    3.4321    0.0000 H   0  0  0  0  0  0  0  0  0  0  0  0
   10.8255    2.5689    0.0000 H   0  0  0  0  0  0  0  0  0  0  0  0
   15.2546    2.2837    0.0000 H   0  0  0  0  0  0  0  0  0  0  0  0
   11.5263   -0.2583    0.0000 H   0  0  0  0  0  0  0  0  0  0  0  0
   11.5263   -2.4982    0.0000 H   0  0  0  0  0  0  0  0  0  0  0  0
   10.1233   -2.6882    0.0000 H   0  0  0  0  0  0  0  0  0  0  0  0
    9.7942   -2.4982    0.0000 H   0  0  0  0  0  0  0  0  0  0  0  0
    9.7942   -0.2583    0.0000 H   0  0  0  0  0  0  0  0  0  0  0  0
    9.3267    0.0967    0.0000 H   0  0  0  0  0  0  0  0  0  0  0  0
    8.5297    0.0967    0.0000 H   0  0  0  0  0  0  0  0  0  0  0  0
   15.5322    3.5919    0.0000 H   0  0  0  0  0  0  0  0  0  0  0  0
   16.0783    1.0322    0.0000 H   0  0  0  0  0  0  0  0  0  0  0  0
   12.3923   -2.9982    0.0000 H   0  0  0  0  0  0  0  0  0  0  0  0
   10.1233   -3.6882    0.0000 H   0  0  0  0  0  0  0  0  0  0  0  0
    8.9282   -2.9982    0.0000 H   0  0  0  0  0  0  0  0  0  0  0  0
    7.5947    0.0967    0.0000 H   0  0  0  0  0  0  0  0  0  0  0  0
    6.7976    0.0967    0.0000 H   0  0  0  0  0  0  0  0  0  0  0  0
    6.8671   -1.1882    0.0000 H   0  0  0  0  0  0  0  0  0  0  0  0
    5.8626    0.0967    0.0000 H   0  0  0  0  0  0  0  0  0  0  0  0
    5.0656    0.0967    0.0000 H   0  0  0  0  0  0  0  0  0  0  0  0
    5.7932   -2.1882    0.0000 H   0  0  0  0  0  0  0  0  0  0  0  0
    4.1306    0.0967    0.0000 H   0  0  0  0  0  0  0  0  0  0  0  0
    3.3335    0.0967    0.0000 H   0  0  0  0  0  0  0  0  0  0  0  0
    2.8660   -1.4982    0.0000 H   0  0  0  0  0  0  0  0  0  0  0  0
    2.0000    0.2417    0.0000 H   0  0  0  0  0  0  0  0  0  0  0  0
    1.4631   -0.6883    0.0000 H   0  0  0  0  0  0  0  0  0  0  0  0
  1 14  1  0  0  0  0
  1 17  1  0  0  0  0
  2 13  1  0  0  0  0
  2 19  1  0  0  0  0
  3 15  1  0  0  0  0
  3 18  1  0  0  0  0
  4 19  1  0  0  0  0
  4 23  1  0  0  0  0
  5 16  1  0  0  0  0
  5 45  1  0  0  0  0
  6 18  1  0  0  0  0
  6 46  1  0  0  0  0
  7 20  1  0  0  0  0
  7 47  1  0  0  0  0
  8 21  1  0  0  0  0
  8 48  1  0  0  0  0
  9 22  1  0  0  0  0
  9 49  1  0  0  0  0
 10 24  1  0  0  0  0
 10 25  1  0  0  0  0
 11 26  1  0  0  0  0
 11 55  1  0  0  0  0
 12 27  1  0  0  0  0
 12 28  1  0  0  0  0
 13 14  1  0  0  0  0
 13 15  1  0  0  0  0
 13 31  1  0  0  0  0
 14 16  1  0  0  0  0
 14 32  1  0  0  0  0
 15 17  1  0  0  0  0
 15 33  1  0  0  0  0
 16 18  1  0  0  0  0
 16 34  1  0  0  0  0
 17 35  1  0  0  0  0
 17 36  1  0  0  0  0
 18 37  1  0  0  0  0
 19 20  1  0  0  0  0
 19 38  1  0  0  0  0
 20 21  1  0  0  0  0
 20 39  1  0  0  0  0
 21 22  1  0  0  0  0
 21 40  1  0  0  0  0
 22 23  1  0  0  0  0
 22 41  1  0  0  0  0
 23 24  1  0  0  0  0
 23 42  1  0  0  0  0
 24 43  1  0  0  0  0
 24 44  1  0  0  0  0
 25 26  1  0  0  0  0
 25 50  1  0  0  0  0
 25 51  1  0  0  0  0
 26 27  1  0  0  0  0
 26 52  1  0  0  0  0
 27 53  1  0  0  0  0
 27 54  1  0  0  0  0
 28 29  1  0  0  0  0
 28 56  1  0  0  0  0
 28 57  1  0  0  0  0
 29 30  2  0  0  0  0
 29 58  1  0  0  0  0
 30 59  1  0  0  0  0
 30 60  1  0  0  0  0
M  END
> <PUBCHEM_COMPOUND_CID>
73557002

> <PUBCHEM_COMPOUND_CANONICALIZED>
1

> <PUBCHEM_CACTVS_COMPLEXITY>
549

> <PUBCHEM_CACTVS_HBOND_ACCEPTOR>
12

> <PUBCHEM_CACTVS_HBOND_DONOR>
6

> <PUBCHEM_CACTVS_ROTATABLE_BOND>
10

> <PUBCHEM_CACTVS_SUBSKEYS>
AAADceB4PAAAAAAAAAAAAAAAAAAAASAAAAAkSAAABIAAAAAAAAAAGgAACAAACBSwgAMACAAABgCAACBCAAAAAAAAAAAIAAAAAAARFAIAIQAiQAAFAAAHIAHAYAwAAAAAAAAAAAAAAAAAAAAAAAAAAAAAAA==

> <PUBCHEM_IUPAC_OPENEYE_NAME>
2-[(3-allyloxy-2-hydroxy-propoxy)methyl]-6-[(3,4-dihydroxy-2,6-dioxabicyclo[3.2.1]octan-8-yl)oxy]tetrahydropyran-3,4,5-triol

> <PUBCHEM_IUPAC_CAS_NAME>
2-[(3,4-dihydroxy-2,6-dioxabicyclo[3.2.1]octan-8-yl)oxy]-6-[(2-hydroxy-3-prop-2-enoxypropoxy)methyl]oxane-3,4,5-triol

> <PUBCHEM_IUPAC_NAME_MARKUP>
2-[(3,4-dihydroxy-2,6-dioxabicyclo[3.2.1]octan-8-yl)oxy]-6-[(2-hydroxy-3-prop-2-enoxypropoxy)methyl]oxane-3,4,5-triol

> <PUBCHEM_IUPAC_NAME>
2-[(3,4-dihydroxy-2,6-dioxabicyclo[3.2.1]octan-8-yl)oxy]-6-[(2-hydroxy-3-prop-2-enoxypropoxy)methyl]oxane-3,4,5-triol

> <PUBCHEM_IUPAC_SYSTEMATIC_NAME>
2-[[3,4-bis(oxidanyl)-2,6-dioxabicyclo[3.2.1]octan-8-yl]oxy]-6-[(2-oxidanyl-3-prop-2-enoxy-propoxy)methyl]oxane-3,4,5-triol

> <PUBCHEM_IUPAC_TRADITIONAL_NAME>
2-[(3-allyloxy-2-hydroxy-propoxy)methyl]-6-[(3,4-dihydroxy-2,6-dioxabicyclo[3.2.1]octan-8-yl)oxy]tetrahydropyran-3,4,5-triol

> <PUBCHEM_IUPAC_INCHI>
InChI=1S/C18H30O12/c1-2-3-25-4-8(19)5-26-6-9-11(20)12(21)13(22)18(29-9)30-15-10-7-27-16(15)14(23)17(24)28-10/h2,8-24H,1,3-7H2

> <PUBCHEM_IUPAC_INCHIKEY>
MGEVYEHKHVEOKL-UHFFFAOYSA-N

> <PUBCHEM_XLOGP3_AA>
-3.9

> <PUBCHEM_EXACT_MASS>
438.17372639

> <PUBCHEM_MOLECULAR_FORMULA>
C18H30O12

> <PUBCHEM_MOLECULAR_WEIGHT>
438.4

> <PUBCHEM_OPENEYE_CAN_SMILES>
C=CCOCC(COCC1C(C(C(C(O1)OC2C3COC2C(C(O3)O)O)O)O)O)O

> <PUBCHEM_OPENEYE_ISO_SMILES>
C=CCOCC(COCC1C(C(C(C(O1)OC2C3COC2C(C(O3)O)O)O)O)O)O

> <PUBCHEM_CACTVS_TPSA>
177

> <PUBCHEM_MONOISOTOPIC_WEIGHT>
438.17372639

> <PUBCHEM_TOTAL_CHARGE>
0

> <PUBCHEM_HEAVY_ATOM_COUNT>
30

> <PUBCHEM_ATOM_DEF_STEREO_COUNT>
0

> <PUBCHEM_ATOM_UDEF_STEREO_COUNT>
11

> <PUBCHEM_BOND_DEF_STEREO_COUNT>
0

> <PUBCHEM_BOND_UDEF_STEREO_COUNT>
0

> <PUBCHEM_ISOTOPIC_ATOM_COUNT>
0

> <PUBCHEM_COMPONENT_COUNT>
1

> <PUBCHEM_CACTVS_TAUTO_COUNT>
1

> <PUBCHEM_COORDINATE_TYPE>
1
5
255

> <PUBCHEM_BONDANNOTATIONS>
14  1  3
26  11  3
15  17  3
13  2  3
19  2  3
23  24  3
16  5  3
18  6  3
20  7  3
21  8  3
22  9  3

$$$$
