 
  -OEChem-10192103292D

 46 48  0     0  0  0  0  0  0999 V2000
    6.0682   -1.4672    0.0000 O   0  0  0  0  0  0  0  0  0  0  0  0
    7.8003    0.5328    0.0000 O   0  0  0  0  0  0  0  0  0  0  0  0
    4.3198    1.5674    0.0000 O   0  0  0  0  0  0  0  0  0  0  0  0
    6.0682    1.5328    0.0000 O   0  0  0  0  0  0  0  0  0  0  0  0
    2.5381   -1.4914    0.0000 O   0  0  0  0  0  0  0  0  0  0  0  0
    6.9343   -2.9672    0.0000 O   0  0  0  0  0  0  0  0  0  0  0  0
   10.3984   -2.9672    0.0000 O   0  0  0  0  0  0  0  0  0  0  0  0
    5.2022    0.0328    0.0000 C   0  0  0  0  0  0  0  0  0  0  0  0
    5.2022   -0.9672    0.0000 C   0  0  0  0  0  0  0  0  0  0  0  0
    6.9343   -0.9672    0.0000 C   0  0  0  0  0  0  0  0  0  0  0  0
    6.9343    0.0328    0.0000 C   0  0  0  0  0  0  0  0  0  0  0  0
    6.0682    0.5328    0.0000 C   0  0  0  0  0  0  0  0  0  0  0  0
    4.3083    0.5674    0.0000 C   0  0  0  0  0  0  0  0  0  0  0  0
    7.8003   -1.4672    0.0000 C   0  0  0  0  0  0  0  0  0  0  0  0
    4.3083   -1.5019    0.0000 C   0  0  0  0  0  0  0  0  0  0  0  0
    3.4022    0.0536    0.0000 C   0  0  0  0  0  0  0  0  0  0  0  0
    3.4022   -0.9881    0.0000 C   0  0  0  0  0  0  0  0  0  0  0  0
    7.8003   -2.4672    0.0000 C   0  0  0  0  0  0  0  0  0  0  0  0
    8.6663   -0.9672    0.0000 C   0  0  0  0  0  0  0  0  0  0  0  0
    8.6663   -2.9672    0.0000 C   0  0  0  0  0  0  0  0  0  0  0  0
    9.5323   -1.4672    0.0000 C   0  0  0  0  0  0  0  0  0  0  0  0
    9.5323   -2.4672    0.0000 C   0  0  0  0  0  0  0  0  0  0  0  0
    7.8003    1.5328    0.0000 C   0  0  0  0  0  0  0  0  0  0  0  0
    3.4597    2.0773    0.0000 C   0  0  0  0  0  0  0  0  0  0  0  0
    8.6663    2.0328    0.0000 C   0  0  0  0  0  0  0  0  0  0  0  0
    3.4712    3.0773    0.0000 C   0  0  0  0  0  0  0  0  0  0  0  0
    8.6663    3.0328    0.0000 C   0  0  0  0  0  0  0  0  0  0  0  0
    2.6110    3.5872    0.0000 C   0  0  0  0  0  0  0  0  0  0  0  0
    4.3154   -2.1219    0.0000 H   0  0  0  0  0  0  0  0  0  0  0  0
    2.8665    0.3656    0.0000 H   0  0  0  0  0  0  0  0  0  0  0  0
    8.6663   -0.3472    0.0000 H   0  0  0  0  0  0  0  0  0  0  0  0
    8.6663   -3.5872    0.0000 H   0  0  0  0  0  0  0  0  0  0  0  0
   10.0693   -1.1572    0.0000 H   0  0  0  0  0  0  0  0  0  0  0  0
    7.5882    2.1154    0.0000 H   0  0  0  0  0  0  0  0  0  0  0  0
    7.1897    1.4251    0.0000 H   0  0  0  0  0  0  0  0  0  0  0  0
    2.8504    2.1920    0.0000 H   0  0  0  0  0  0  0  0  0  0  0  0
    3.2409    1.4972    0.0000 H   0  0  0  0  0  0  0  0  0  0  0  0
    2.0000   -1.1835    0.0000 H   0  0  0  0  0  0  0  0  0  0  0  0
    6.9343   -3.5872    0.0000 H   0  0  0  0  0  0  0  0  0  0  0  0
    9.2033    1.7228    0.0000 H   0  0  0  0  0  0  0  0  0  0  0  0
    4.0117    3.3810    0.0000 H   0  0  0  0  0  0  0  0  0  0  0  0
   10.9353   -2.6572    0.0000 H   0  0  0  0  0  0  0  0  0  0  0  0
    9.2033    3.3428    0.0000 H   0  0  0  0  0  0  0  0  0  0  0  0
    8.1294    3.3428    0.0000 H   0  0  0  0  0  0  0  0  0  0  0  0
    2.6182    4.2072    0.0000 H   0  0  0  0  0  0  0  0  0  0  0  0
    2.0706    3.2835    0.0000 H   0  0  0  0  0  0  0  0  0  0  0  0
  1  9  1  0  0  0  0
  1 10  1  0  0  0  0
  2 11  1  0  0  0  0
  2 23  1  0  0  0  0
  3 13  1  0  0  0  0
  3 24  1  0  0  0  0
  4 12  2  0  0  0  0
  5 17  1  0  0  0  0
  5 38  1  0  0  0  0
  6 18  1  0  0  0  0
  6 39  1  0  0  0  0
  7 22  1  0  0  0  0
  7 42  1  0  0  0  0
  8  9  2  0  0  0  0
  8 12  1  0  0  0  0
  8 13  1  0  0  0  0
  9 15  1  0  0  0  0
 10 11  2  0  0  0  0
 10 14  1  0  0  0  0
 11 12  1  0  0  0  0
 13 16  2  0  0  0  0
 14 18  2  0  0  0  0
 14 19  1  0  0  0  0
 15 17  2  0  0  0  0
 15 29  1  0  0  0  0
 16 17  1  0  0  0  0
 16 30  1  0  0  0  0
 18 20  1  0  0  0  0
 19 21  2  0  0  0  0
 19 31  1  0  0  0  0
 20 22  2  0  0  0  0
 20 32  1  0  0  0  0
 21 22  1  0  0  0  0
 21 33  1  0  0  0  0
 23 25  1  0  0  0  0
 23 34  1  0  0  0  0
 23 35  1  0  0  0  0
 24 26  1  0  0  0  0
 24 36  1  0  0  0  0
 24 37  1  0  0  0  0
 25 27  2  0  0  0  0
 25 40  1  0  0  0  0
 26 28  2  0  0  0  0
 26 41  1  0  0  0  0
 27 43  1  0  0  0  0
 27 44  1  0  0  0  0
 28 45  1  0  0  0  0
 28 46  1  0  0  0  0
M  END
> <PUBCHEM_COMPOUND_CID>
124080237

> <PUBCHEM_COMPOUND_CANONICALIZED>
1

> <PUBCHEM_CACTVS_COMPLEXITY>
628

> <PUBCHEM_CACTVS_HBOND_ACCEPTOR>
7

> <PUBCHEM_CACTVS_HBOND_DONOR>
3

> <PUBCHEM_CACTVS_ROTATABLE_BOND>
7

> <PUBCHEM_CACTVS_SUBSKEYS>
AAADceB4OAAAAAAAAAAAAAAAAAAAAAAAAAAwYIAAAAAAAACBQAAAGgAACAAADASgmAIwBoAABgCIAqBSAAICCAAkIAAIiAFGCMgMJzaGNR6CeWCl4BUIuQfI7KzOIAAACAAIAABAAAAQABAAAAAAAAAAAA==

> <PUBCHEM_IUPAC_OPENEYE_NAME>
3,5-diallyloxy-2-(2,4-dihydroxyphenyl)-7-hydroxy-chromen-4-one

> <PUBCHEM_IUPAC_CAS_NAME>
2-(2,4-dihydroxyphenyl)-7-hydroxy-3,5-bis(prop-2-enoxy)-1-benzopyran-4-one

> <PUBCHEM_IUPAC_NAME_MARKUP>
2-(2,4-dihydroxyphenyl)-7-hydroxy-3,5-bis(prop-2-enoxy)chromen-4-one

> <PUBCHEM_IUPAC_NAME>
2-(2,4-dihydroxyphenyl)-7-hydroxy-3,5-bis(prop-2-enoxy)chromen-4-one

> <PUBCHEM_IUPAC_SYSTEMATIC_NAME>
2-[2,4-bis(oxidanyl)phenyl]-7-oxidanyl-3,5-bis(prop-2-enoxy)chromen-4-one

> <PUBCHEM_IUPAC_TRADITIONAL_NAME>
3,5-diallyloxy-2-(2,4-dihydroxyphenyl)-7-hydroxy-chromone

> <PUBCHEM_IUPAC_INCHI>
InChI=1S/C21H18O7/c1-3-7-26-16-10-13(23)11-17-18(16)19(25)21(27-8-4-2)20(28-17)14-6-5-12(22)9-15(14)24/h3-6,9-11,22-24H,1-2,7-8H2

> <PUBCHEM_IUPAC_INCHIKEY>
SEWKFUSPQCKTGR-UHFFFAOYSA-N

> <PUBCHEM_XLOGP3>
2.9

> <PUBCHEM_EXACT_MASS>
382.10525291

> <PUBCHEM_MOLECULAR_FORMULA>
C21H18O7

> <PUBCHEM_MOLECULAR_WEIGHT>
382.4

> <PUBCHEM_OPENEYE_CAN_SMILES>
C=CCOC1=CC(=CC2=C1C(=O)C(=C(O2)C3=C(C=C(C=C3)O)O)OCC=C)O

> <PUBCHEM_OPENEYE_ISO_SMILES>
C=CCOC1=CC(=CC2=C1C(=O)C(=C(O2)C3=C(C=C(C=C3)O)O)OCC=C)O

> <PUBCHEM_CACTVS_TPSA>
105

> <PUBCHEM_MONOISOTOPIC_WEIGHT>
382.10525291

> <PUBCHEM_TOTAL_CHARGE>
0

> <PUBCHEM_HEAVY_ATOM_COUNT>
28

> <PUBCHEM_ATOM_DEF_STEREO_COUNT>
0

> <PUBCHEM_ATOM_UDEF_STEREO_COUNT>
0

> <PUBCHEM_BOND_DEF_STEREO_COUNT>
0

> <PUBCHEM_BOND_UDEF_STEREO_COUNT>
0

> <PUBCHEM_ISOTOPIC_ATOM_COUNT>
0

> <PUBCHEM_COMPONENT_COUNT>
1

> <PUBCHEM_CACTVS_TAUTO_COUNT>
-1

> <PUBCHEM_COORDINATE_TYPE>
1
5
255

> <PUBCHEM_BONDANNOTATIONS>
1  10  8
1  9  8
10  11  8
11  12  8
13  16  8
14  18  8
14  19  8
15  17  8
16  17  8
18  20  8
19  21  8
20  22  8
21  22  8
8  12  8
8  13  8
8  9  8
9  15  8

$$$$
