 
  -OEChem-10192103362D

 27 28  0     0  0  0  0  0  0999 V2000
    3.7320    1.9162    0.0000 O   0  0  0  0  0  0  0  0  0  0  0  0
    2.0000   -1.0838    0.0000 O   0  0  0  0  0  0  0  0  0  0  0  0
    7.6279   -0.9499    0.0000 O   0  5  0  0  0  0  0  0  0  0  0  0
    7.6279    0.7822    0.0000 O   0  0  0  0  0  0  0  0  0  0  0  0
    5.5443    0.7209    0.0000 N   0  0  0  0  0  0  0  0  0  0  0  0
    3.7320   -1.0838    0.0000 N   0  0  0  0  0  0  0  0  0  0  0  0
    2.8660    0.4162    0.0000 N   0  0  0  0  0  0  0  0  0  0  0  0
    5.5443   -0.8886    0.0000 N   0  0  0  0  0  0  0  0  0  0  0  0
    7.1279   -0.0838    0.0000 N   0  3  0  0  0  0  0  0  0  0  0  0
    7.8120    2.0838    0.0000 N   0  0  0  0  0  0  0  0  0  0  0  0
    4.5981    0.4162    0.0000 C   0  0  0  0  0  0  0  0  0  0  0  0
    4.5981   -0.5838    0.0000 C   0  0  0  0  0  0  0  0  0  0  0  0
    3.7320    0.9162    0.0000 C   0  0  0  0  0  0  0  0  0  0  0  0
    6.1279   -0.0838    0.0000 C   0  0  0  0  0  0  0  0  0  0  0  0
    2.8660   -0.5838    0.0000 C   0  0  0  0  0  0  0  0  0  0  0  0
    5.8550    1.6714    0.0000 C   0  0  0  0  0  0  0  0  0  0  0  0
    3.7320   -2.0838    0.0000 C   0  0  0  0  0  0  0  0  0  0  0  0
    2.0000    0.9162    0.0000 C   0  0  0  0  0  0  0  0  0  0  0  0
    6.8335    1.8776    0.0000 C   0  0  0  0  0  0  0  0  0  0  0  0
    5.8344    2.2911    0.0000 H   0  0  0  0  0  0  0  0  0  0  0  0
    5.2411    1.7588    0.0000 H   0  0  0  0  0  0  0  0  0  0  0  0
    3.1120   -2.0838    0.0000 H   0  0  0  0  0  0  0  0  0  0  0  0
    3.7320   -2.7038    0.0000 H   0  0  0  0  0  0  0  0  0  0  0  0
    4.3520   -2.0838    0.0000 H   0  0  0  0  0  0  0  0  0  0  0  0
    2.3100    1.4531    0.0000 H   0  0  0  0  0  0  0  0  0  0  0  0
    1.4631    1.2262    0.0000 H   0  0  0  0  0  0  0  0  0  0  0  0
    1.6900    0.3792    0.0000 H   0  0  0  0  0  0  0  0  0  0  0  0
  1 13  2  0  0  0  0
  2 15  2  0  0  0  0
  3  9  1  0  0  0  0
  4  9  2  0  0  0  0
  5 11  1  0  0  0  0
  5 14  1  0  0  0  0
  5 16  1  0  0  0  0
  6 12  1  0  0  0  0
  6 15  1  0  0  0  0
  6 17  1  0  0  0  0
  7 13  1  0  0  0  0
  7 15  1  0  0  0  0
  7 18  1  0  0  0  0
  8 12  1  0  0  0  0
  8 14  2  0  0  0  0
  9 14  1  0  0  0  0
 10 19  3  0  0  0  0
 11 12  2  0  0  0  0
 11 13  1  0  0  0  0
 16 19  1  0  0  0  0
 16 20  1  0  0  0  0
 16 21  1  0  0  0  0
 17 22  1  0  0  0  0
 17 23  1  0  0  0  0
 17 24  1  0  0  0  0
 18 25  1  0  0  0  0
 18 26  1  0  0  0  0
 18 27  1  0  0  0  0
M  CHG  2   3  -1   9   1
M  END
> <PUBCHEM_COMPOUND_CID>
10264763

> <PUBCHEM_COMPOUND_CANONICALIZED>
1

> <PUBCHEM_CACTVS_COMPLEXITY>
493

> <PUBCHEM_CACTVS_HBOND_ACCEPTOR>
6

> <PUBCHEM_CACTVS_HBOND_DONOR>
0

> <PUBCHEM_CACTVS_ROTATABLE_BOND>
1

> <PUBCHEM_CACTVS_SUBSKEYS>
AAADccBzuAAAAAAAAAAAAAAAAAAAAWAAAAAsAAAAAAAAAFgBgAAAHgAEAAAACAjBlgQDsBccUAC5BQdwdwCAgC0HEKABUAGoVECASAhASCAUAIgIByLAAGAAAAAAAAAAAAAAAAAAAAAAAAAAAAAAAAAAAA==

> <PUBCHEM_IUPAC_OPENEYE_NAME>
2-(1,3-dimethyl-8-nitro-2,6-dioxo-purin-7-yl)acetonitrile

> <PUBCHEM_IUPAC_CAS_NAME>
2-(1,3-dimethyl-8-nitro-2,6-dioxo-7-purinyl)acetonitrile

> <PUBCHEM_IUPAC_NAME_MARKUP>
2-(1,3-dimethyl-8-nitro-2,6-dioxopurin-7-yl)acetonitrile

> <PUBCHEM_IUPAC_NAME>
2-(1,3-dimethyl-8-nitro-2,6-dioxopurin-7-yl)acetonitrile

> <PUBCHEM_IUPAC_SYSTEMATIC_NAME>
2-[1,3-dimethyl-8-nitro-2,6-bis(oxidanylidene)purin-7-yl]ethanenitrile

> <PUBCHEM_IUPAC_TRADITIONAL_NAME>
2-(2,6-diketo-1,3-dimethyl-8-nitro-purin-7-yl)acetonitrile

> <PUBCHEM_IUPAC_INCHI>
InChI=1S/C9H8N6O4/c1-12-6-5(7(16)13(2)9(12)17)14(4-3-10)8(11-6)15(18)19/h4H2,1-2H3

> <PUBCHEM_IUPAC_INCHIKEY>
AZDDLHMXDGXVAX-UHFFFAOYSA-N

> <PUBCHEM_XLOGP3_AA>
-0.4

> <PUBCHEM_EXACT_MASS>
264.06070276

> <PUBCHEM_MOLECULAR_FORMULA>
C9H8N6O4

> <PUBCHEM_MOLECULAR_WEIGHT>
264.20

> <PUBCHEM_OPENEYE_CAN_SMILES>
CN1C2=C(C(=O)N(C1=O)C)N(C(=N2)[N+](=O)[O-])CC#N

> <PUBCHEM_OPENEYE_ISO_SMILES>
CN1C2=C(C(=O)N(C1=O)C)N(C(=N2)[N+](=O)[O-])CC#N

> <PUBCHEM_CACTVS_TPSA>
128

> <PUBCHEM_MONOISOTOPIC_WEIGHT>
264.06070276

> <PUBCHEM_TOTAL_CHARGE>
0

> <PUBCHEM_HEAVY_ATOM_COUNT>
19

> <PUBCHEM_ATOM_DEF_STEREO_COUNT>
0

> <PUBCHEM_ATOM_UDEF_STEREO_COUNT>
0

> <PUBCHEM_BOND_DEF_STEREO_COUNT>
0

> <PUBCHEM_BOND_UDEF_STEREO_COUNT>
0

> <PUBCHEM_ISOTOPIC_ATOM_COUNT>
0

> <PUBCHEM_COMPONENT_COUNT>
1

> <PUBCHEM_CACTVS_TAUTO_COUNT>
-1

> <PUBCHEM_COORDINATE_TYPE>
1
5
255

> <PUBCHEM_BONDANNOTATIONS>
11  12  8
11  13  8
5  11  8
5  14  8
6  12  8
6  15  8
7  13  8
7  15  8
8  12  8
8  14  8

$$$$
