 
  -OEChem-10192103382D

 46 49  0     1  0  0  0  0  0999 V2000
    7.7331    1.7887    0.0000 O   0  0  0  0  0  0  0  0  0  0  0  0
    5.1350    2.2887    0.0000 O   0  0  0  0  0  0  0  0  0  0  0  0
    5.1350    0.2887    0.0000 O   0  0  0  0  0  0  0  0  0  0  0  0
    6.8671   -0.7113    0.0000 O   0  0  0  0  0  0  0  0  0  0  0  0
    8.5991    0.2887    0.0000 O   0  0  0  0  0  0  0  0  0  0  0  0
    5.1350   -0.7113    0.0000 O   0  0  0  0  0  0  0  0  0  0  0  0
    6.8671   -2.7113    0.0000 O   0  0  0  0  0  0  0  0  0  0  0  0
    5.1350   -3.7113    0.0000 O   0  0  0  0  0  0  0  0  0  0  0  0
    3.4030   -2.7113    0.0000 O   0  0  0  0  0  0  0  0  0  0  0  0
    2.5369   -1.2113    0.0000 O   0  0  0  0  0  0  0  0  0  0  0  0
    7.3671    3.1547    0.0000 C   0  0  3  0  0  0  0  0  0  0  0  0
    6.3671    3.1547    0.0000 C   0  0  3  0  0  0  0  0  0  0  0  0
    6.8671    2.2887    0.0000 C   0  0  0  0  0  0  0  0  0  0  0  0
    6.8671    4.0213    0.0000 C   0  0  0  0  0  0  0  0  0  0  0  0
    6.0010    1.7887    0.0000 C   0  0  3  0  0  0  0  0  0  0  0  0
    6.0010    0.7887    0.0000 C   0  0  3  0  0  0  0  0  0  0  0  0
    7.7331    0.7887    0.0000 C   0  0  3  0  0  0  0  0  0  0  0  0
    6.8671    0.2887    0.0000 C   0  0  3  0  0  0  0  0  0  0  0  0
    6.0010   -1.2113    0.0000 C   0  0  3  0  0  0  0  0  0  0  0  0
    6.0010   -2.2113    0.0000 C   0  0  3  0  0  0  0  0  0  0  0  0
    5.1350   -2.7113    0.0000 C   0  0  3  0  0  0  0  0  0  0  0  0
    4.2690   -1.2113    0.0000 C   0  0  3  0  0  0  0  0  0  0  0  0
    4.2690   -2.2113    0.0000 C   0  0  3  0  0  0  0  0  0  0  0  0
    3.4030   -0.7113    0.0000 C   0  0  0  0  0  0  0  0  0  0  0  0
    7.9871    3.1547    0.0000 H   0  0  0  0  0  0  0  0  0  0  0  0
    5.7471    3.1547    0.0000 H   0  0  0  0  0  0  0  0  0  0  0  0
    7.3420    4.4198    0.0000 H   0  0  0  0  0  0  0  0  0  0  0  0
    6.3921    4.4198    0.0000 H   0  0  0  0  0  0  0  0  0  0  0  0
    6.0010    2.4087    0.0000 H   0  0  0  0  0  0  0  0  0  0  0  0
    5.4641    1.0987    0.0000 H   0  0  0  0  0  0  0  0  0  0  0  0
    7.7331    0.1687    0.0000 H   0  0  0  0  0  0  0  0  0  0  0  0
    6.3301   -0.0213    0.0000 H   0  0  0  0  0  0  0  0  0  0  0  0
    4.5981    1.9787    0.0000 H   0  0  0  0  0  0  0  0  0  0  0  0
    4.5981    0.5987    0.0000 H   0  0  0  0  0  0  0  0  0  0  0  0
    9.1360    0.5987    0.0000 H   0  0  0  0  0  0  0  0  0  0  0  0
    6.5380   -1.5213    0.0000 H   0  0  0  0  0  0  0  0  0  0  0  0
    6.0010   -2.8313    0.0000 H   0  0  0  0  0  0  0  0  0  0  0  0
    4.5981   -3.0213    0.0000 H   0  0  0  0  0  0  0  0  0  0  0  0
    4.2690   -0.5913    0.0000 H   0  0  0  0  0  0  0  0  0  0  0  0
    4.2690   -2.8313    0.0000 H   0  0  0  0  0  0  0  0  0  0  0  0
    3.8015   -0.2363    0.0000 H   0  0  0  0  0  0  0  0  0  0  0  0
    3.0044   -0.2363    0.0000 H   0  0  0  0  0  0  0  0  0  0  0  0
    6.8671   -3.3313    0.0000 H   0  0  0  0  0  0  0  0  0  0  0  0
    4.5981   -4.0213    0.0000 H   0  0  0  0  0  0  0  0  0  0  0  0
    3.4030   -3.3313    0.0000 H   0  0  0  0  0  0  0  0  0  0  0  0
    2.0000   -0.9013    0.0000 H   0  0  0  0  0  0  0  0  0  0  0  0
  1 13  1  0  0  0  0
  1 17  1  0  0  0  0
  2 15  1  0  0  0  0
  2 33  1  0  0  0  0
  3 16  1  0  0  0  0
  3 34  1  0  0  0  0
  4 18  1  0  0  0  0
  4 19  1  0  0  0  0
  5 17  1  0  0  0  0
  5 35  1  0  0  0  0
  6 19  1  0  0  0  0
  6 22  1  0  0  0  0
  7 20  1  0  0  0  0
  7 43  1  0  0  0  0
  8 21  1  0  0  0  0
  8 44  1  0  0  0  0
  9 23  1  0  0  0  0
  9 45  1  0  0  0  0
 10 24  1  0  0  0  0
 10 46  1  0  0  0  0
 11 12  1  0  0  0  0
 11 13  1  0  0  0  0
 11 14  1  0  0  0  0
 11 25  1  0  0  0  0
 12 13  1  0  0  0  0
 12 14  1  0  0  0  0
 12 26  1  0  0  0  0
 13 15  1  0  0  0  0
 14 27  1  0  0  0  0
 14 28  1  0  0  0  0
 15 16  1  0  0  0  0
 15 29  1  0  0  0  0
 16 18  1  0  0  0  0
 16 30  1  0  0  0  0
 17 18  1  0  0  0  0
 17 31  1  0  0  0  0
 18 32  1  0  0  0  0
 19 20  1  0  0  0  0
 19 36  1  0  0  0  0
 20 21  1  0  0  0  0
 20 37  1  0  0  0  0
 21 23  1  0  0  0  0
 21 38  1  0  0  0  0
 22 23  1  0  0  0  0
 22 24  1  0  0  0  0
 22 39  1  0  0  0  0
 23 40  1  0  0  0  0
 24 41  1  0  0  0  0
 24 42  1  0  0  0  0
M  END
> <PUBCHEM_COMPOUND_CID>
71229327

> <PUBCHEM_COMPOUND_CANONICALIZED>
1

> <PUBCHEM_CACTVS_COMPLEXITY>
494

> <PUBCHEM_CACTVS_HBOND_ACCEPTOR>
10

> <PUBCHEM_CACTVS_HBOND_DONOR>
7

> <PUBCHEM_CACTVS_ROTATABLE_BOND>
3

> <PUBCHEM_CACTVS_SUBSKEYS>
AAADceBwPAAAAAAAAAAAAAAAGDBgAAAAAAAkSAAAAAAAAAAAAAAAGgAACAAADVSwgAMACAAABgAAAAAAAAAAAAAAAAAAAAAAAAAREAIAAAAiQAAFAAAHAAHA4PwOAAAAAAAAAAAAAAAAAAAAAAAAAAAAAA==

> <PUBCHEM_IUPAC_OPENEYE_NAME>
3'-[3,4,5-trihydroxy-6-(hydroxymethyl)tetrahydropyran-2-yl]oxyspiro[bicyclo[1.1.0]butane-2,6'-tetrahydropyran]-2',4',5'-triol

> <PUBCHEM_IUPAC_CAS_NAME>
3'-[[3,4,5-trihydroxy-6-(hydroxymethyl)-2-oxanyl]oxy]spiro[bicyclo[1.1.0]butane-2,6'-oxane]-2',4',5'-triol

> <PUBCHEM_IUPAC_NAME_MARKUP>
3&apos;-[3,4,5-trihydroxy-6-(hydroxymethyl)oxan-2-yl]oxyspiro[bicyclo[1.1.0]butane-2,6&apos;-oxane]-2&apos;,4&apos;,5&apos;-triol

> <PUBCHEM_IUPAC_NAME>
3'-[3,4,5-trihydroxy-6-(hydroxymethyl)oxan-2-yl]oxyspiro[bicyclo[1.1.0]butane-2,6'-oxane]-2',4',5'-triol

> <PUBCHEM_IUPAC_SYSTEMATIC_NAME>
3'-[6-(hydroxymethyl)-3,4,5-tris(oxidanyl)oxan-2-yl]oxyspiro[bicyclo[1.1.0]butane-2,6'-oxane]-2',4',5'-triol

> <PUBCHEM_IUPAC_TRADITIONAL_NAME>
3'-(3,4,5-trihydroxy-6-methylol-tetrahydropyran-2-yl)oxyspiro[bicyclo[1.1.0]butane-2,6'-tetrahydropyran]-2',4',5'-triol

> <PUBCHEM_IUPAC_INCHI>
InChI=1S/C14H22O10/c15-2-5-6(16)7(17)8(18)13(22-5)23-10-9(19)11(20)14(24-12(10)21)3-1-4(3)14/h3-13,15-21H,1-2H2

> <PUBCHEM_IUPAC_INCHIKEY>
PKOSIOBWUIZCCU-UHFFFAOYSA-N

> <PUBCHEM_XLOGP3_AA>
-3.8

> <PUBCHEM_EXACT_MASS>
350.12129689

> <PUBCHEM_MOLECULAR_FORMULA>
C14H22O10

> <PUBCHEM_MOLECULAR_WEIGHT>
350.32

> <PUBCHEM_OPENEYE_CAN_SMILES>
C1C2C1C23C(C(C(C(O3)O)OC4C(C(C(C(O4)CO)O)O)O)O)O

> <PUBCHEM_OPENEYE_ISO_SMILES>
C1C2C1C23C(C(C(C(O3)O)OC4C(C(C(C(O4)CO)O)O)O)O)O

> <PUBCHEM_CACTVS_TPSA>
169

> <PUBCHEM_MONOISOTOPIC_WEIGHT>
350.12129689

> <PUBCHEM_TOTAL_CHARGE>
0

> <PUBCHEM_HEAVY_ATOM_COUNT>
24

> <PUBCHEM_ATOM_DEF_STEREO_COUNT>
0

> <PUBCHEM_ATOM_UDEF_STEREO_COUNT>
11

> <PUBCHEM_BOND_DEF_STEREO_COUNT>
0

> <PUBCHEM_BOND_UDEF_STEREO_COUNT>
0

> <PUBCHEM_ISOTOPIC_ATOM_COUNT>
0

> <PUBCHEM_COMPONENT_COUNT>
1

> <PUBCHEM_CACTVS_TAUTO_COUNT>
-1

> <PUBCHEM_COORDINATE_TYPE>
1
5
255

> <PUBCHEM_BONDANNOTATIONS>
11  14  3
12  14  3
15  2  3
22  24  3
16  3  3
18  4  3
19  4  3
17  5  3
20  7  3
21  8  3
23  9  3

$$$$
