 
  -OEChem-10192103292D

 97101  0     1  0  0  0  0  0999 V2000
    6.3871    1.6227    0.0000 O   0  0  0  0  0  0  0  0  0  0  0  0
    9.3056    2.5710    0.0000 O   0  0  0  0  0  0  0  0  0  0  0  0
    7.1962   -2.9651    0.0000 O   0  0  0  0  0  0  0  0  0  0  0  0
    5.4641   -2.9651    0.0000 O   0  0  0  0  0  0  0  0  0  0  0  0
    8.9282   -1.9651    0.0000 O   0  0  0  0  0  0  0  0  0  0  0  0
    5.4641   -1.9651    0.0000 O   0  0  0  0  0  0  0  0  0  0  0  0
    6.7750    6.1590    0.0000 O   0  0  0  0  0  0  0  0  0  0  0  0
   10.2391    6.1530    0.0000 O   0  0  0  0  0  0  0  0  0  0  0  0
    7.1962   -4.9651    0.0000 O   0  0  0  0  0  0  0  0  0  0  0  0
    5.4641   -5.9651    0.0000 O   0  0  0  0  0  0  0  0  0  0  0  0
    3.7320   -4.9651    0.0000 O   0  0  0  0  0  0  0  0  0  0  0  0
    8.5088    7.1560    0.0000 O   0  0  0  0  0  0  0  0  0  0  0  0
    3.7320   -1.9651    0.0000 O   0  0  0  0  0  0  0  0  0  0  0  0
    6.3301   -6.4651    0.0000 O   0  0  0  0  0  0  0  0  0  0  0  0
    3.7320   -5.9651    0.0000 O   0  0  0  0  0  0  0  0  0  0  0  0
    2.8660   -3.4651    0.0000 O   0  0  0  0  0  0  0  0  0  0  0  0
    2.0000   -1.9651    0.0000 O   0  0  0  0  0  0  0  0  0  0  0  0
    8.0052    1.6227    0.0000 C   0  0  1  0  0  0  0  0  0  0  0  0
    7.6962    2.5738    0.0000 C   0  0  1  0  0  0  0  0  0  0  0  0
    7.1962    1.0349    0.0000 C   0  0  1  0  0  0  0  0  0  0  0  0
    8.5019    3.1560    0.0000 C   0  0  1  0  0  0  0  0  0  0  0  0
    6.6962    2.5738    0.0000 C   0  0  0  0  0  0  0  0  0  0  0  0
    8.9992    1.6253    0.0000 C   0  0  0  0  0  0  0  0  0  0  0  0
    7.1962    0.0349    0.0000 C   0  0  0  0  0  0  0  0  0  0  0  0
    8.5036    4.1560    0.0000 C   0  0  0  0  0  0  0  0  0  0  0  0
    6.3301   -0.4651    0.0000 C   0  0  0  0  0  0  0  0  0  0  0  0
    8.0622   -0.4651    0.0000 C   0  0  0  0  0  0  0  0  0  0  0  0
    9.3705    4.6545    0.0000 C   0  0  0  0  0  0  0  0  0  0  0  0
    7.6385    4.6575    0.0000 C   0  0  0  0  0  0  0  0  0  0  0  0
    8.0622   -1.4651    0.0000 C   0  0  0  0  0  0  0  0  0  0  0  0
    6.3301   -1.4651    0.0000 C   0  0  0  0  0  0  0  0  0  0  0  0
    7.1962   -1.9651    0.0000 C   0  0  0  0  0  0  0  0  0  0  0  0
    7.6402    5.6575    0.0000 C   0  0  0  0  0  0  0  0  0  0  0  0
    9.3722    5.6545    0.0000 C   0  0  0  0  0  0  0  0  0  0  0  0
    6.3301   -4.4651    0.0000 C   0  0  1  0  0  0  0  0  0  0  0  0
    6.3301   -3.4651    0.0000 C   0  0  2  0  0  0  0  0  0  0  0  0
    5.4641   -4.9651    0.0000 C   0  0  2  0  0  0  0  0  0  0  0  0
    4.5981   -4.4651    0.0000 C   0  0  1  0  0  0  0  0  0  0  0  0
    4.5981   -3.4651    0.0000 C   0  0  1  0  0  0  0  0  0  0  0  0
    8.5071    6.1560    0.0000 C   0  0  0  0  0  0  0  0  0  0  0  0
    3.7320   -2.9651    0.0000 C   0  0  0  0  0  0  0  0  0  0  0  0
    9.7942   -1.4651    0.0000 C   0  0  0  0  0  0  0  0  0  0  0  0
    4.5981   -1.4651    0.0000 C   0  0  0  0  0  0  0  0  0  0  0  0
    5.9082    5.6605    0.0000 C   0  0  0  0  0  0  0  0  0  0  0  0
   11.1043    5.6515    0.0000 C   0  0  0  0  0  0  0  0  0  0  0  0
    7.1962   -5.9651    0.0000 C   0  0  0  0  0  0  0  0  0  0  0  0
    4.5981   -6.4651    0.0000 C   0  0  0  0  0  0  0  0  0  0  0  0
    2.8660   -4.4651    0.0000 C   0  0  0  0  0  0  0  0  0  0  0  0
    8.0622   -6.4651    0.0000 C   0  0  0  0  0  0  0  0  0  0  0  0
    4.5981   -7.4651    0.0000 C   0  0  0  0  0  0  0  0  0  0  0  0
    2.0000   -4.9651    0.0000 C   0  0  0  0  0  0  0  0  0  0  0  0
    2.8660   -1.4651    0.0000 C   0  0  0  0  0  0  0  0  0  0  0  0
    2.8660   -0.4651    0.0000 C   0  0  0  0  0  0  0  0  0  0  0  0
    8.2689    0.8147    0.0000 H   0  0  0  0  0  0  0  0  0  0  0  0
    7.4345    3.3825    0.0000 H   0  0  0  0  0  0  0  0  0  0  0  0
    6.6437    0.7535    0.0000 H   0  0  0  0  0  0  0  0  0  0  0  0
    9.0547    3.4368    0.0000 H   0  0  0  0  0  0  0  0  0  0  0  0
    6.7610    3.1904    0.0000 H   0  0  0  0  0  0  0  0  0  0  0  0
    6.0897    2.7027    0.0000 H   0  0  0  0  0  0  0  0  0  0  0  0
    8.9357    1.0086    0.0000 H   0  0  0  0  0  0  0  0  0  0  0  0
    9.6059    1.4973    0.0000 H   0  0  0  0  0  0  0  0  0  0  0  0
    5.7932   -0.1551    0.0000 H   0  0  0  0  0  0  0  0  0  0  0  0
    8.5991   -0.1551    0.0000 H   0  0  0  0  0  0  0  0  0  0  0  0
    9.9069    4.3436    0.0000 H   0  0  0  0  0  0  0  0  0  0  0  0
    7.1010    4.3484    0.0000 H   0  0  0  0  0  0  0  0  0  0  0  0
    6.3301   -5.0851    0.0000 H   0  0  0  0  0  0  0  0  0  0  0  0
    6.3301   -2.8451    0.0000 H   0  0  0  0  0  0  0  0  0  0  0  0
    4.9272   -5.2751    0.0000 H   0  0  0  0  0  0  0  0  0  0  0  0
    4.5981   -5.0851    0.0000 H   0  0  0  0  0  0  0  0  0  0  0  0
    4.5981   -2.8451    0.0000 H   0  0  0  0  0  0  0  0  0  0  0  0
    3.1215   -2.8574    0.0000 H   0  0  0  0  0  0  0  0  0  0  0  0
    3.5200   -3.5477    0.0000 H   0  0  0  0  0  0  0  0  0  0  0  0
    9.0463    7.4651    0.0000 H   0  0  0  0  0  0  0  0  0  0  0  0
   10.1042   -2.0020    0.0000 H   0  0  0  0  0  0  0  0  0  0  0  0
   10.3312   -1.1551    0.0000 H   0  0  0  0  0  0  0  0  0  0  0  0
    9.4842   -0.9281    0.0000 H   0  0  0  0  0  0  0  0  0  0  0  0
    4.9081   -0.9281    0.0000 H   0  0  0  0  0  0  0  0  0  0  0  0
    4.0611   -1.1551    0.0000 H   0  0  0  0  0  0  0  0  0  0  0  0
    4.2881   -2.0020    0.0000 H   0  0  0  0  0  0  0  0  0  0  0  0
    5.5991    6.1980    0.0000 H   0  0  0  0  0  0  0  0  0  0  0  0
    5.3707    5.3514    0.0000 H   0  0  0  0  0  0  0  0  0  0  0  0
    6.2172    5.1230    0.0000 H   0  0  0  0  0  0  0  0  0  0  0  0
   10.7934    5.1151    0.0000 H   0  0  0  0  0  0  0  0  0  0  0  0
   11.6407    5.3406    0.0000 H   0  0  0  0  0  0  0  0  0  0  0  0
   11.4152    6.1879    0.0000 H   0  0  0  0  0  0  0  0  0  0  0  0
    7.7522   -7.0020    0.0000 H   0  0  0  0  0  0  0  0  0  0  0  0
    8.5991   -6.7751    0.0000 H   0  0  0  0  0  0  0  0  0  0  0  0
    8.3722   -5.9281    0.0000 H   0  0  0  0  0  0  0  0  0  0  0  0
    3.9781   -7.4651    0.0000 H   0  0  0  0  0  0  0  0  0  0  0  0
    4.5981   -8.0851    0.0000 H   0  0  0  0  0  0  0  0  0  0  0  0
    5.2181   -7.4651    0.0000 H   0  0  0  0  0  0  0  0  0  0  0  0
    1.6900   -4.4281    0.0000 H   0  0  0  0  0  0  0  0  0  0  0  0
    1.4631   -5.2751    0.0000 H   0  0  0  0  0  0  0  0  0  0  0  0
    2.3100   -5.5020    0.0000 H   0  0  0  0  0  0  0  0  0  0  0  0
    3.4860   -0.4651    0.0000 H   0  0  0  0  0  0  0  0  0  0  0  0
    2.8660    0.1549    0.0000 H   0  0  0  0  0  0  0  0  0  0  0  0
    2.2460   -0.4651    0.0000 H   0  0  0  0  0  0  0  0  0  0  0  0
  1 20  1  0  0  0  0
  1 22  1  0  0  0  0
  2 21  1  0  0  0  0
  2 23  1  0  0  0  0
  3 32  1  0  0  0  0
 36  3  1  1  0  0  0
  4 36  1  0  0  0  0
  4 39  1  0  0  0  0
  5 30  1  0  0  0  0
  5 42  1  0  0  0  0
  6 31  1  0  0  0  0
  6 43  1  0  0  0  0
  7 33  1  0  0  0  0
  7 44  1  0  0  0  0
  8 34  1  0  0  0  0
  8 45  1  0  0  0  0
 35  9  1  6  0  0  0
  9 46  1  0  0  0  0
 37 10  1  1  0  0  0
 10 47  1  0  0  0  0
 38 11  1  6  0  0  0
 11 48  1  0  0  0  0
 12 40  1  0  0  0  0
 12 73  1  0  0  0  0
 13 41  1  0  0  0  0
 13 52  1  0  0  0  0
 14 46  2  0  0  0  0
 15 47  2  0  0  0  0
 16 48  2  0  0  0  0
 17 52  2  0  0  0  0
 18 19  1  0  0  0  0
 18 20  1  0  0  0  0
 18 23  1  0  0  0  0
 18 54  1  1  0  0  0
 19 21  1  0  0  0  0
 19 22  1  0  0  0  0
 19 55  1  1  0  0  0
 20 24  1  1  0  0  0
 20 56  1  0  0  0  0
 21 25  1  1  0  0  0
 21 57  1  0  0  0  0
 22 58  1  0  0  0  0
 22 59  1  0  0  0  0
 23 60  1  0  0  0  0
 23 61  1  0  0  0  0
 24 26  2  0  0  0  0
 24 27  1  0  0  0  0
 25 28  2  0  0  0  0
 25 29  1  0  0  0  0
 26 31  1  0  0  0  0
 26 62  1  0  0  0  0
 27 30  2  0  0  0  0
 27 63  1  0  0  0  0
 28 34  1  0  0  0  0
 28 64  1  0  0  0  0
 29 33  2  0  0  0  0
 29 65  1  0  0  0  0
 30 32  1  0  0  0  0
 31 32  2  0  0  0  0
 33 40  1  0  0  0  0
 34 40  2  0  0  0  0
 35 36  1  0  0  0  0
 35 37  1  0  0  0  0
 35 66  1  0  0  0  0
 36 67  1  0  0  0  0
 37 38  1  0  0  0  0
 37 68  1  0  0  0  0
 38 39  1  0  0  0  0
 38 69  1  0  0  0  0
 39 41  1  1  0  0  0
 39 70  1  0  0  0  0
 41 71  1  0  0  0  0
 41 72  1  0  0  0  0
 42 74  1  0  0  0  0
 42 75  1  0  0  0  0
 42 76  1  0  0  0  0
 43 77  1  0  0  0  0
 43 78  1  0  0  0  0
 43 79  1  0  0  0  0
 44 80  1  0  0  0  0
 44 81  1  0  0  0  0
 44 82  1  0  0  0  0
 45 83  1  0  0  0  0
 45 84  1  0  0  0  0
 45 85  1  0  0  0  0
 46 49  1  0  0  0  0
 47 50  1  0  0  0  0
 48 51  1  0  0  0  0
 49 86  1  0  0  0  0
 49 87  1  0  0  0  0
 49 88  1  0  0  0  0
 50 89  1  0  0  0  0
 50 90  1  0  0  0  0
 50 91  1  0  0  0  0
 51 92  1  0  0  0  0
 51 93  1  0  0  0  0
 51 94  1  0  0  0  0
 52 53  1  0  0  0  0
 53 95  1  0  0  0  0
 53 96  1  0  0  0  0
 53 97  1  0  0  0  0
M  END
> <PUBCHEM_COMPOUND_CID>
101609019

> <PUBCHEM_COMPOUND_CANONICALIZED>
1

> <PUBCHEM_CACTVS_COMPLEXITY>
1240

> <PUBCHEM_CACTVS_HBOND_ACCEPTOR>
17

> <PUBCHEM_CACTVS_HBOND_DONOR>
1

> <PUBCHEM_CACTVS_ROTATABLE_BOND>
17

> <PUBCHEM_CACTVS_SUBSKEYS>
AAADcfB8PgAAAAAAAAAAAAAAAAAAASJAAAA0YIAAAAASAAABQAAAGgAACAAADRSwmAMyDoAABgCIAiDSCAACCAAgIAAAiAAGiIgdJyKGMRqieCOlwBUPuAfA4PwOoAABCAAAQABAAAIQAACAAAAAAAAAAA==

> <PUBCHEM_IUPAC_OPENEYE_NAME>
[(2R,3R,4S,5R,6S)-6-[4-[(3S,3aR,6S,6aR)-3-(4-hydroxy-3,5-dimethoxy-phenyl)-1,3,3a,4,6,6a-hexahydrofuro[3,4-c]furan-6-yl]-2,6-dimethoxy-phenoxy]-3,4,5-triacetoxy-tetrahydropyran-2-yl]methyl acetate

> <PUBCHEM_IUPAC_CAS_NAME>
acetic acid [(2R,3R,4S,5R,6S)-6-[4-[(3S,3aR,6S,6aR)-3-(4-hydroxy-3,5-dimethoxyphenyl)-1,3,3a,4,6,6a-hexahydrofuro[3,4-c]furan-6-yl]-2,6-dimethoxyphenoxy]-3,4,5-triacetyloxy-2-oxanyl]methyl ester

> <PUBCHEM_IUPAC_NAME_MARKUP>
[(2<I>R</I>,3<I>R</I>,4<I>S</I>,5<I>R</I>,6<I>S</I>)-6-[4-[(3<I>S</I>,3<I>a</I><I>R</I>,6<I>S</I>,6<I>a</I><I>R</I>)-3-(4-hydroxy-3,5-dimethoxyphenyl)-1,3,3<I>a</I>,4,6,6<I>a</I>-hexahydrofuro[3,4-c]furan-6-yl]-2,6-dimethoxyphenoxy]-3,4,5-triacetyloxyoxan-2-yl]methyl acetate

> <PUBCHEM_IUPAC_NAME>
[(2R,3R,4S,5R,6S)-6-[4-[(3S,3aR,6S,6aR)-3-(4-hydroxy-3,5-dimethoxyphenyl)-1,3,3a,4,6,6a-hexahydrofuro[3,4-c]furan-6-yl]-2,6-dimethoxyphenoxy]-3,4,5-triacetyloxyoxan-2-yl]methyl acetate

> <PUBCHEM_IUPAC_SYSTEMATIC_NAME>
[(2R,3R,4S,5R,6S)-6-[4-[(3S,3aR,6S,6aR)-3-(3,5-dimethoxy-4-oxidanyl-phenyl)-1,3,3a,4,6,6a-hexahydrofuro[3,4-c]furan-6-yl]-2,6-dimethoxy-phenoxy]-3,4,5-triacetyloxy-oxan-2-yl]methyl ethanoate

> <PUBCHEM_IUPAC_TRADITIONAL_NAME>
acetic acid [(2R,3R,4S,5R,6S)-6-[4-[(3S,3aR,6S,6aR)-3-(4-hydroxy-3,5-dimethoxy-phenyl)-1,3,3a,4,6,6a-hexahydrofuro[3,4-c]furan-6-yl]-2,6-dimethoxy-phenoxy]-3,4,5-triacetoxy-tetrahydropyran-2-yl]methyl ester

> <PUBCHEM_IUPAC_INCHI>
InChI=1S/C36H44O17/c1-16(37)46-15-28-33(49-17(2)38)34(50-18(3)39)35(51-19(4)40)36(52-28)53-32-26(44-7)11-21(12-27(32)45-8)31-23-14-47-30(22(23)13-48-31)20-9-24(42-5)29(41)25(10-20)43-6/h9-12,22-23,28,30-31,33-36,41H,13-15H2,1-8H3/t22-,23-,28+,30+,31+,33+,34-,35+,36-/m0/s1

> <PUBCHEM_IUPAC_INCHIKEY>
DZNHTZMFXBULTP-XBMSGBCGSA-N

> <PUBCHEM_XLOGP3_AA>
2.2

> <PUBCHEM_EXACT_MASS>
748.25784993

> <PUBCHEM_MOLECULAR_FORMULA>
C36H44O17

> <PUBCHEM_MOLECULAR_WEIGHT>
748.7

> <PUBCHEM_OPENEYE_CAN_SMILES>
CC(=O)OCC1C(C(C(C(O1)OC2=C(C=C(C=C2OC)C3C4COC(C4CO3)C5=CC(=C(C(=C5)OC)O)OC)OC)OC(=O)C)OC(=O)C)OC(=O)C

> <PUBCHEM_OPENEYE_ISO_SMILES>
CC(=O)OC[C@@H]1[C@H]([C@@H]([C@H]([C@@H](O1)OC2=C(C=C(C=C2OC)[C@@H]3[C@H]4CO[C@@H]([C@H]4CO3)C5=CC(=C(C(=C5)OC)O)OC)OC)OC(=O)C)OC(=O)C)OC(=O)C

> <PUBCHEM_CACTVS_TPSA>
199

> <PUBCHEM_MONOISOTOPIC_WEIGHT>
748.25784993

> <PUBCHEM_TOTAL_CHARGE>
0

> <PUBCHEM_HEAVY_ATOM_COUNT>
53

> <PUBCHEM_ATOM_DEF_STEREO_COUNT>
9

> <PUBCHEM_ATOM_UDEF_STEREO_COUNT>
0

> <PUBCHEM_BOND_DEF_STEREO_COUNT>
0

> <PUBCHEM_BOND_UDEF_STEREO_COUNT>
0

> <PUBCHEM_ISOTOPIC_ATOM_COUNT>
0

> <PUBCHEM_COMPONENT_COUNT>
1

> <PUBCHEM_CACTVS_TAUTO_COUNT>
-1

> <PUBCHEM_COORDINATE_TYPE>
1
5
255

> <PUBCHEM_BONDANNOTATIONS>
37  10  5
38  11  6
18  54  5
19  55  5
20  24  5
21  25  5
24  26  8
24  27  8
25  28  8
25  29  8
26  31  8
27  30  8
28  34  8
29  33  8
36  3  5
30  32  8
31  32  8
33  40  8
34  40  8
39  41  5
35  9  6

$$$$
