 
  -OEChem-10192104112D

 28 28  0     0  0  0  0  0  0999 V2000
    5.1350   -2.2500    0.0000 O   0  0  0  0  0  0  0  0  0  0  0  0
    2.5369    1.2500    0.0000 O   0  0  0  0  0  0  0  0  0  0  0  0
    5.1350    2.7500    0.0000 O   0  0  0  0  0  0  0  0  0  0  0  0
    3.4030   -2.2500    0.0000 O   0  0  0  0  0  0  0  0  0  0  0  0
    3.4030    2.7500    0.0000 O   0  0  0  0  0  0  0  0  0  0  0  0
    4.2690   -0.7500    0.0000 C   0  0  0  0  0  0  0  0  0  0  0  0
    4.2690    1.2500    0.0000 C   0  0  0  0  0  0  0  0  0  0  0  0
    3.4030    0.7500    0.0000 C   0  0  0  0  0  0  0  0  0  0  0  0
    3.4030   -0.2500    0.0000 C   0  0  0  0  0  0  0  0  0  0  0  0
    5.1350   -0.2500    0.0000 C   0  0  0  0  0  0  0  0  0  0  0  0
    5.1350    0.7500    0.0000 C   0  0  0  0  0  0  0  0  0  0  0  0
    4.2690   -1.7500    0.0000 C   0  0  0  0  0  0  0  0  0  0  0  0
    5.1350   -3.2500    0.0000 C   0  0  0  0  0  0  0  0  0  0  0  0
    4.2690    2.2500    0.0000 C   0  0  0  0  0  0  0  0  0  0  0  0
    6.0010   -3.7500    0.0000 C   0  0  0  0  0  0  0  0  0  0  0  0
    5.1350    3.7500    0.0000 C   0  0  0  0  0  0  0  0  0  0  0  0
    2.8660   -0.5600    0.0000 H   0  0  0  0  0  0  0  0  0  0  0  0
    5.6720   -0.5600    0.0000 H   0  0  0  0  0  0  0  0  0  0  0  0
    5.6720    1.0600    0.0000 H   0  0  0  0  0  0  0  0  0  0  0  0
    4.5244   -3.1423    0.0000 H   0  0  0  0  0  0  0  0  0  0  0  0
    4.9230   -3.8326    0.0000 H   0  0  0  0  0  0  0  0  0  0  0  0
    5.6910   -4.2869    0.0000 H   0  0  0  0  0  0  0  0  0  0  0  0
    6.5380   -4.0600    0.0000 H   0  0  0  0  0  0  0  0  0  0  0  0
    6.3110   -3.2131    0.0000 H   0  0  0  0  0  0  0  0  0  0  0  0
    2.0000    0.9400    0.0000 H   0  0  0  0  0  0  0  0  0  0  0  0
    5.7550    3.7500    0.0000 H   0  0  0  0  0  0  0  0  0  0  0  0
    5.1350    4.3700    0.0000 H   0  0  0  0  0  0  0  0  0  0  0  0
    4.5150    3.7500    0.0000 H   0  0  0  0  0  0  0  0  0  0  0  0
  1 12  1  0  0  0  0
  1 13  1  0  0  0  0
  2  8  1  0  0  0  0
  2 25  1  0  0  0  0
  3 14  1  0  0  0  0
  3 16  1  0  0  0  0
  4 12  2  0  0  0  0
  5 14  2  0  0  0  0
  6  9  2  0  0  0  0
  6 10  1  0  0  0  0
  6 12  1  0  0  0  0
  7  8  2  0  0  0  0
  7 11  1  0  0  0  0
  7 14  1  0  0  0  0
  8  9  1  0  0  0  0
  9 17  1  0  0  0  0
 10 11  2  0  0  0  0
 10 18  1  0  0  0  0
 11 19  1  0  0  0  0
 13 15  1  0  0  0  0
 13 20  1  0  0  0  0
 13 21  1  0  0  0  0
 15 22  1  0  0  0  0
 15 23  1  0  0  0  0
 15 24  1  0  0  0  0
 16 26  1  0  0  0  0
 16 27  1  0  0  0  0
 16 28  1  0  0  0  0
M  END
> <PUBCHEM_COMPOUND_CID>
68956788

> <PUBCHEM_COMPOUND_CANONICALIZED>
1

> <PUBCHEM_CACTVS_COMPLEXITY>
263

> <PUBCHEM_CACTVS_HBOND_ACCEPTOR>
5

> <PUBCHEM_CACTVS_HBOND_DONOR>
1

> <PUBCHEM_CACTVS_ROTATABLE_BOND>
5

> <PUBCHEM_CACTVS_SUBSKEYS>
AAADccBwOAAAAAAAAAAAAAAAAAAAAAAAAAAwAAAAAAAAAAABAAAAGgAACAAADASgmAIyDoAABgCIAiDSCAACAAAkIAAIiAEGCMgIJzaCNRqCcUAl4BEIuYfKyDCOQAABAAAIAACAAAIAABAAAAAAAAAAAA==

> <PUBCHEM_IUPAC_OPENEYE_NAME>
O4-ethyl O1-methyl 2-hydroxybenzene-1,4-dicarboxylate

> <PUBCHEM_IUPAC_CAS_NAME>
2-hydroxybenzene-1,4-dicarboxylic acid O4-ethyl ester O1-methyl ester

> <PUBCHEM_IUPAC_NAME_MARKUP>
4-<I>O</I>-ethyl 1-<I>O</I>-methyl 2-hydroxybenzene-1,4-dicarboxylate

> <PUBCHEM_IUPAC_NAME>
4-O-ethyl 1-O-methyl 2-hydroxybenzene-1,4-dicarboxylate

> <PUBCHEM_IUPAC_SYSTEMATIC_NAME>
O4-ethyl O1-methyl 2-oxidanylbenzene-1,4-dicarboxylate

> <PUBCHEM_IUPAC_TRADITIONAL_NAME>
2-hydroxybenzene-1,4-dicarboxylic acid O4-ethyl ester O1-methyl ester

> <PUBCHEM_IUPAC_INCHI>
InChI=1S/C11H12O5/c1-3-16-10(13)7-4-5-8(9(12)6-7)11(14)15-2/h4-6,12H,3H2,1-2H3

> <PUBCHEM_IUPAC_INCHIKEY>
AIFGSIFKMKIHEQ-UHFFFAOYSA-N

> <PUBCHEM_XLOGP3_AA>
2.2

> <PUBCHEM_EXACT_MASS>
224.06847348

> <PUBCHEM_MOLECULAR_FORMULA>
C11H12O5

> <PUBCHEM_MOLECULAR_WEIGHT>
224.21

> <PUBCHEM_OPENEYE_CAN_SMILES>
CCOC(=O)C1=CC(=C(C=C1)C(=O)OC)O

> <PUBCHEM_OPENEYE_ISO_SMILES>
CCOC(=O)C1=CC(=C(C=C1)C(=O)OC)O

> <PUBCHEM_CACTVS_TPSA>
72.8

> <PUBCHEM_MONOISOTOPIC_WEIGHT>
224.06847348

> <PUBCHEM_TOTAL_CHARGE>
0

> <PUBCHEM_HEAVY_ATOM_COUNT>
16

> <PUBCHEM_ATOM_DEF_STEREO_COUNT>
0

> <PUBCHEM_ATOM_UDEF_STEREO_COUNT>
0

> <PUBCHEM_BOND_DEF_STEREO_COUNT>
0

> <PUBCHEM_BOND_UDEF_STEREO_COUNT>
0

> <PUBCHEM_ISOTOPIC_ATOM_COUNT>
0

> <PUBCHEM_COMPONENT_COUNT>
1

> <PUBCHEM_CACTVS_TAUTO_COUNT>
-1

> <PUBCHEM_COORDINATE_TYPE>
1
5
255

> <PUBCHEM_BONDANNOTATIONS>
10  11  8
6  10  8
6  9  8
7  11  8
7  8  8
8  9  8

$$$$
