 
  -OEChem-10192104232D

 66 69  0     1  0  0  0  0  0999 V2000
    5.1350   -1.5513    0.0000 O   0  0  0  0  0  0  0  0  0  0  0  0
    6.8671   -1.5513    0.0000 O   0  0  0  0  0  0  0  0  0  0  0  0
    5.1350   -4.5513    0.0000 O   0  0  0  0  0  0  0  0  0  0  0  0
    3.4030   -3.5513    0.0000 O   0  0  0  0  0  0  0  0  0  0  0  0
    6.8671   -3.5513    0.0000 O   0  0  0  0  0  0  0  0  0  0  0  0
    2.5369   -2.0513    0.0000 O   0  0  0  0  0  0  0  0  0  0  0  0
   12.9732    2.9556    0.0000 O   0  0  0  0  0  0  0  0  0  0  0  0
    3.4030   -0.5513    0.0000 O   0  0  0  0  0  0  0  0  0  0  0  0
    9.4651    2.9487    0.0000 O   0  0  0  0  0  0  0  0  0  0  0  0
    5.1350    1.4487    0.0000 O   0  0  0  0  0  0  0  0  0  0  0  0
    8.5991   -1.5513    0.0000 O   0  0  0  0  0  0  0  0  0  0  0  0
    5.1350   -3.5513    0.0000 C   0  0  3  0  0  0  0  0  0  0  0  0
    4.2690   -3.0513    0.0000 C   0  0  3  0  0  0  0  0  0  0  0  0
    6.0010   -3.0513    0.0000 C   0  0  3  0  0  0  0  0  0  0  0  0
    4.2690   -2.0513    0.0000 C   0  0  3  0  0  0  0  0  0  0  0  0
    6.0010   -2.0513    0.0000 C   0  0  3  0  0  0  0  0  0  0  0  0
    3.4030   -1.5513    0.0000 C   0  0  0  0  0  0  0  0  0  0  0  0
    6.8671   -0.5513    0.0000 C   0  0  0  0  0  0  0  0  0  0  0  0
   12.9812    3.9972    0.0000 C   0  0  0  0  0  0  0  0  0  0  0  0
    7.7331   -0.0513    0.0000 C   0  0  0  0  0  0  0  0  0  0  0  0
   11.1972    2.9487    0.0000 C   0  0  0  0  0  0  0  0  0  0  0  0
   12.0792    4.5180    0.0000 C   0  0  0  0  0  0  0  0  0  0  0  0
    6.0010   -0.0513    0.0000 C   0  0  0  0  0  0  0  0  0  0  0  0
   12.0632    2.4487    0.0000 C   0  0  0  0  0  0  0  0  0  0  0  0
   13.4846    4.8613    0.0000 C   0  0  0  0  0  0  0  0  0  0  0  0
   13.9812    3.9933    0.0000 C   0  0  0  0  0  0  0  0  0  0  0  0
   11.1811    3.9902    0.0000 C   0  0  0  0  0  0  0  0  0  0  0  0
   10.3312    2.4487    0.0000 C   0  0  0  0  0  0  0  0  0  0  0  0
   10.3312    1.4487    0.0000 C   0  0  0  0  0  0  0  0  0  0  0  0
    7.7331    0.9487    0.0000 C   0  0  0  0  0  0  0  0  0  0  0  0
    8.5991   -0.5513    0.0000 C   0  0  0  0  0  0  0  0  0  0  0  0
   12.0632    1.4487    0.0000 C   0  0  0  0  0  0  0  0  0  0  0  0
    6.0010    0.9487    0.0000 C   0  0  0  0  0  0  0  0  0  0  0  0
   11.1972    0.9487    0.0000 C   0  0  0  0  0  0  0  0  0  0  0  0
    6.8671    1.4487    0.0000 C   0  0  0  0  0  0  0  0  0  0  0  0
    9.4651    0.9487    0.0000 C   0  0  0  0  0  0  0  0  0  0  0  0
    9.4651   -0.0513    0.0000 C   0  0  0  0  0  0  0  0  0  0  0  0
    9.4651    3.9487    0.0000 C   0  0  0  0  0  0  0  0  0  0  0  0
    4.5981   -3.8613    0.0000 H   0  0  0  0  0  0  0  0  0  0  0  0
    3.7320   -2.7413    0.0000 H   0  0  0  0  0  0  0  0  0  0  0  0
    6.0010   -3.6713    0.0000 H   0  0  0  0  0  0  0  0  0  0  0  0
    4.2690   -1.4313    0.0000 H   0  0  0  0  0  0  0  0  0  0  0  0
    6.5380   -2.3613    0.0000 H   0  0  0  0  0  0  0  0  0  0  0  0
    5.6720   -4.8613    0.0000 H   0  0  0  0  0  0  0  0  0  0  0  0
    3.4030   -4.1713    0.0000 H   0  0  0  0  0  0  0  0  0  0  0  0
    7.4040   -3.2413    0.0000 H   0  0  0  0  0  0  0  0  0  0  0  0
   12.0768    5.1380    0.0000 H   0  0  0  0  0  0  0  0  0  0  0  0
    2.0000   -1.7413    0.0000 H   0  0  0  0  0  0  0  0  0  0  0  0
    5.4641   -0.3613    0.0000 H   0  0  0  0  0  0  0  0  0  0  0  0
   14.0203    4.5492    0.0000 H   0  0  0  0  0  0  0  0  0  0  0  0
   13.7966    5.3970    0.0000 H   0  0  0  0  0  0  0  0  0  0  0  0
   12.9488    5.1733    0.0000 H   0  0  0  0  0  0  0  0  0  0  0  0
   13.9788    3.3733    0.0000 H   0  0  0  0  0  0  0  0  0  0  0  0
   14.6012    3.9909    0.0000 H   0  0  0  0  0  0  0  0  0  0  0  0
   13.9836    4.6133    0.0000 H   0  0  0  0  0  0  0  0  0  0  0  0
   10.6406    4.2940    0.0000 H   0  0  0  0  0  0  0  0  0  0  0  0
    8.2700    1.2587    0.0000 H   0  0  0  0  0  0  0  0  0  0  0  0
   12.6002    1.1387    0.0000 H   0  0  0  0  0  0  0  0  0  0  0  0
   11.1972    0.3287    0.0000 H   0  0  0  0  0  0  0  0  0  0  0  0
    6.8671    2.0687    0.0000 H   0  0  0  0  0  0  0  0  0  0  0  0
    8.9282    1.2587    0.0000 H   0  0  0  0  0  0  0  0  0  0  0  0
   10.0021   -0.3613    0.0000 H   0  0  0  0  0  0  0  0  0  0  0  0
    5.1350    2.0687    0.0000 H   0  0  0  0  0  0  0  0  0  0  0  0
   10.0851    3.9487    0.0000 H   0  0  0  0  0  0  0  0  0  0  0  0
    9.4651    4.5687    0.0000 H   0  0  0  0  0  0  0  0  0  0  0  0
    8.8451    3.9487    0.0000 H   0  0  0  0  0  0  0  0  0  0  0  0
  1 15  1  0  0  0  0
  1 16  1  0  0  0  0
  2 16  1  0  0  0  0
  2 18  1  0  0  0  0
  3 12  1  0  0  0  0
  3 44  1  0  0  0  0
  4 13  1  0  0  0  0
  4 45  1  0  0  0  0
  5 14  1  0  0  0  0
  5 46  1  0  0  0  0
  6 17  1  0  0  0  0
  6 48  1  0  0  0  0
  7 19  1  0  0  0  0
  7 24  1  0  0  0  0
  8 17  2  0  0  0  0
  9 28  1  0  0  0  0
  9 38  1  0  0  0  0
 10 33  1  0  0  0  0
 10 63  1  0  0  0  0
 11 31  2  0  0  0  0
 12 13  1  0  0  0  0
 12 14  1  0  0  0  0
 12 39  1  0  0  0  0
 13 15  1  0  0  0  0
 13 40  1  0  0  0  0
 14 16  1  0  0  0  0
 14 41  1  0  0  0  0
 15 17  1  0  0  0  0
 15 42  1  0  0  0  0
 16 43  1  0  0  0  0
 18 20  2  0  0  0  0
 18 23  1  0  0  0  0
 19 22  1  0  0  0  0
 19 25  1  0  0  0  0
 19 26  1  0  0  0  0
 20 30  1  0  0  0  0
 20 31  1  0  0  0  0
 21 24  2  0  0  0  0
 21 27  1  0  0  0  0
 21 28  1  0  0  0  0
 22 27  2  0  0  0  0
 22 47  1  0  0  0  0
 23 33  2  0  0  0  0
 23 49  1  0  0  0  0
 24 32  1  0  0  0  0
 25 50  1  0  0  0  0
 25 51  1  0  0  0  0
 25 52  1  0  0  0  0
 26 53  1  0  0  0  0
 26 54  1  0  0  0  0
 26 55  1  0  0  0  0
 27 56  1  0  0  0  0
 28 29  2  0  0  0  0
 29 34  1  0  0  0  0
 29 36  1  0  0  0  0
 30 35  2  0  0  0  0
 30 57  1  0  0  0  0
 31 37  1  0  0  0  0
 32 34  2  0  0  0  0
 32 58  1  0  0  0  0
 33 35  1  0  0  0  0
 34 59  1  0  0  0  0
 35 60  1  0  0  0  0
 36 37  2  0  0  0  0
 36 61  1  0  0  0  0
 37 62  1  0  0  0  0
 38 64  1  0  0  0  0
 38 65  1  0  0  0  0
 38 66  1  0  0  0  0
M  END
> <PUBCHEM_COMPOUND_CID>
131832340

> <PUBCHEM_COMPOUND_CANONICALIZED>
1

> <PUBCHEM_CACTVS_COMPLEXITY>
917

> <PUBCHEM_CACTVS_HBOND_ACCEPTOR>
11

> <PUBCHEM_CACTVS_HBOND_DONOR>
5

> <PUBCHEM_CACTVS_ROTATABLE_BOND>
7

> <PUBCHEM_CACTVS_SUBSKEYS>
AAADceB4PAAAAAAAAAAAAAAAAAAAAAAAAAA0YIEAAAAAAACBQAAAGgAACAAADFSwmAMyDoAABgCIAqDSCAICCAAkIAAIiAFGCMgdNzaGNR6ieWCl4BUPuYfK7OzOIAACCAAIAABAAAQQABAAAAAAAAAAAA==

> <PUBCHEM_IUPAC_OPENEYE_NAME>
3,4,5-trihydroxy-6-[5-hydroxy-2-[(E)-3-(5-methoxy-2,2-dimethyl-chromen-6-yl)prop-2-enoyl]phenoxy]tetrahydropyran-2-carboxylic acid

> <PUBCHEM_IUPAC_CAS_NAME>
3,4,5-trihydroxy-6-[5-hydroxy-2-[(E)-3-(5-methoxy-2,2-dimethyl-1-benzopyran-6-yl)-1-oxoprop-2-enyl]phenoxy]-2-oxanecarboxylic acid

> <PUBCHEM_IUPAC_NAME_MARKUP>
3,4,5-trihydroxy-6-[5-hydroxy-2-[(<I>E</I>)-3-(5-methoxy-2,2-dimethylchromen-6-yl)prop-2-enoyl]phenoxy]oxane-2-carboxylic acid

> <PUBCHEM_IUPAC_NAME>
3,4,5-trihydroxy-6-[5-hydroxy-2-[(E)-3-(5-methoxy-2,2-dimethylchromen-6-yl)prop-2-enoyl]phenoxy]oxane-2-carboxylic acid

> <PUBCHEM_IUPAC_SYSTEMATIC_NAME>
6-[2-[(E)-3-(5-methoxy-2,2-dimethyl-chromen-6-yl)prop-2-enoyl]-5-oxidanyl-phenoxy]-3,4,5-tris(oxidanyl)oxane-2-carboxylic acid

> <PUBCHEM_IUPAC_TRADITIONAL_NAME>
3,4,5-trihydroxy-6-[5-hydroxy-2-[(E)-3-(5-methoxy-2,2-dimethyl-chromen-6-yl)acryloyl]phenoxy]tetrahydropyran-2-carboxylic acid

> <PUBCHEM_IUPAC_INCHI>
InChI=1S/C27H28O11/c1-27(2)11-10-16-18(38-27)9-5-13(23(16)35-3)4-8-17(29)15-7-6-14(28)12-19(15)36-26-22(32)20(30)21(31)24(37-26)25(33)34/h4-12,20-22,24,26,28,30-32H,1-3H3,(H,33,34)/b8-4+

> <PUBCHEM_IUPAC_INCHIKEY>
QMWLEGVGGUYPHW-XBXARRHUSA-N

> <PUBCHEM_XLOGP3_AA>
2.3

> <PUBCHEM_EXACT_MASS>
528.16316171

> <PUBCHEM_MOLECULAR_FORMULA>
C27H28O11

> <PUBCHEM_MOLECULAR_WEIGHT>
528.5

> <PUBCHEM_OPENEYE_CAN_SMILES>
CC1(C=CC2=C(O1)C=CC(=C2OC)C=CC(=O)C3=C(C=C(C=C3)O)OC4C(C(C(C(O4)C(=O)O)O)O)O)C

> <PUBCHEM_OPENEYE_ISO_SMILES>
CC1(C=CC2=C(O1)C=CC(=C2OC)/C=C/C(=O)C3=C(C=C(C=C3)O)OC4C(C(C(C(O4)C(=O)O)O)O)O)C

> <PUBCHEM_CACTVS_TPSA>
172

> <PUBCHEM_MONOISOTOPIC_WEIGHT>
528.16316171

> <PUBCHEM_TOTAL_CHARGE>
0

> <PUBCHEM_HEAVY_ATOM_COUNT>
38

> <PUBCHEM_ATOM_DEF_STEREO_COUNT>
0

> <PUBCHEM_ATOM_UDEF_STEREO_COUNT>
5

> <PUBCHEM_BOND_DEF_STEREO_COUNT>
1

> <PUBCHEM_BOND_UDEF_STEREO_COUNT>
0

> <PUBCHEM_ISOTOPIC_ATOM_COUNT>
0

> <PUBCHEM_COMPONENT_COUNT>
1

> <PUBCHEM_CACTVS_TAUTO_COUNT>
-1

> <PUBCHEM_COORDINATE_TYPE>
1
5
255

> <PUBCHEM_BONDANNOTATIONS>
15  17  3
18  20  8
18  23  8
16  2  3
20  30  8
21  24  8
21  28  8
23  33  8
24  32  8
28  29  8
29  34  8
12  3  3
30  35  8
32  34  8
33  35  8
13  4  3
14  5  3

$$$$
