 
  -OEChem-10192104432D

 53 54  0     1  0  0  0  0  0999 V2000
    4.2690   -2.4050    0.0000 O   0  0  0  0  0  0  0  0  0  0  0  0
    6.0010   -2.4050    0.0000 O   0  0  0  0  0  0  0  0  0  0  0  0
    4.2690   -5.4050    0.0000 O   0  0  0  0  0  0  0  0  0  0  0  0
    2.5369   -4.4050    0.0000 O   0  0  0  0  0  0  0  0  0  0  0  0
    6.0010   -4.4050    0.0000 O   0  0  0  0  0  0  0  0  0  0  0  0
    2.5369   -1.4050    0.0000 O   0  0  0  0  0  0  0  0  0  0  0  0
    7.7331   -1.4050    0.0000 O   0  0  0  0  0  0  0  0  0  0  0  0
    7.7331    0.5950    0.0000 O   0  0  0  0  0  0  0  0  0  0  0  0
   12.0632    5.0950    0.0000 O   0  0  0  0  0  0  0  0  0  0  0  0
    4.2690   -4.4050    0.0000 C   0  0  1  0  0  0  0  0  0  0  0  0
    3.4030   -3.9050    0.0000 C   0  0  1  0  0  0  0  0  0  0  0  0
    5.1350   -3.9050    0.0000 C   0  0  2  0  0  0  0  0  0  0  0  0
    3.4030   -2.9050    0.0000 C   0  0  1  0  0  0  0  0  0  0  0  0
    5.1350   -2.9050    0.0000 C   0  0  1  0  0  0  0  0  0  0  0  0
    2.5369   -2.4050    0.0000 C   0  0  0  0  0  0  0  0  0  0  0  0
    6.0010   -1.4050    0.0000 C   0  0  0  0  0  0  0  0  0  0  0  0
    6.8671   -0.9050    0.0000 C   0  0  3  0  0  0  0  0  0  0  0  0
    6.8671    0.0950    0.0000 C   0  0  0  0  0  0  0  0  0  0  0  0
    7.7331    1.5950    0.0000 C   0  0  0  0  0  0  0  0  0  0  0  0
    8.5991    2.0950    0.0000 C   0  0  0  0  0  0  0  0  0  0  0  0
    8.5991    3.0950    0.0000 C   0  0  0  0  0  0  0  0  0  0  0  0
    9.4651    3.5950    0.0000 C   0  0  0  0  0  0  0  0  0  0  0  0
    9.4651    4.5950    0.0000 C   0  0  0  0  0  0  0  0  0  0  0  0
   10.3312    3.0950    0.0000 C   0  0  0  0  0  0  0  0  0  0  0  0
   10.3312    5.0950    0.0000 C   0  0  0  0  0  0  0  0  0  0  0  0
   11.1972    3.5950    0.0000 C   0  0  0  0  0  0  0  0  0  0  0  0
   11.1972    4.5950    0.0000 C   0  0  0  0  0  0  0  0  0  0  0  0
    4.8059   -4.7150    0.0000 H   0  0  0  0  0  0  0  0  0  0  0  0
    2.8660   -3.5950    0.0000 H   0  0  0  0  0  0  0  0  0  0  0  0
    5.6720   -3.5950    0.0000 H   0  0  0  0  0  0  0  0  0  0  0  0
    3.4030   -2.2850    0.0000 H   0  0  0  0  0  0  0  0  0  0  0  0
    5.1350   -2.2850    0.0000 H   0  0  0  0  0  0  0  0  0  0  0  0
    1.9264   -2.2973    0.0000 H   0  0  0  0  0  0  0  0  0  0  0  0
    2.3249   -2.9876    0.0000 H   0  0  0  0  0  0  0  0  0  0  0  0
    3.7320   -5.7150    0.0000 H   0  0  0  0  0  0  0  0  0  0  0  0
    2.0000   -4.0950    0.0000 H   0  0  0  0  0  0  0  0  0  0  0  0
    6.5380   -4.0950    0.0000 H   0  0  0  0  0  0  0  0  0  0  0  0
    5.7890   -0.8224    0.0000 H   0  0  0  0  0  0  0  0  0  0  0  0
    5.3905   -1.5127    0.0000 H   0  0  0  0  0  0  0  0  0  0  0  0
    6.8671   -1.5250    0.0000 H   0  0  0  0  0  0  0  0  0  0  0  0
    2.0000   -1.0950    0.0000 H   0  0  0  0  0  0  0  0  0  0  0  0
    6.6550    0.6776    0.0000 H   0  0  0  0  0  0  0  0  0  0  0  0
    6.2565   -0.0127    0.0000 H   0  0  0  0  0  0  0  0  0  0  0  0
    8.2700   -1.0950    0.0000 H   0  0  0  0  0  0  0  0  0  0  0  0
    7.5210    2.1776    0.0000 H   0  0  0  0  0  0  0  0  0  0  0  0
    7.1225    1.4873    0.0000 H   0  0  0  0  0  0  0  0  0  0  0  0
    9.1360    1.7850    0.0000 H   0  0  0  0  0  0  0  0  0  0  0  0
    8.0622    3.4050    0.0000 H   0  0  0  0  0  0  0  0  0  0  0  0
    8.9282    4.9050    0.0000 H   0  0  0  0  0  0  0  0  0  0  0  0
   10.3312    2.4750    0.0000 H   0  0  0  0  0  0  0  0  0  0  0  0
   10.3312    5.7150    0.0000 H   0  0  0  0  0  0  0  0  0  0  0  0
   11.7341    3.2850    0.0000 H   0  0  0  0  0  0  0  0  0  0  0  0
   12.0632    5.7150    0.0000 H   0  0  0  0  0  0  0  0  0  0  0  0
  1 13  1  0  0  0  0
  1 14  1  0  0  0  0
 14  2  1  1  0  0  0
  2 16  1  0  0  0  0
 10  3  1  1  0  0  0
  3 35  1  0  0  0  0
 11  4  1  6  0  0  0
  4 36  1  0  0  0  0
 12  5  1  6  0  0  0
  5 37  1  0  0  0  0
  6 15  1  0  0  0  0
  6 41  1  0  0  0  0
  7 17  1  0  0  0  0
  7 44  1  0  0  0  0
  8 18  1  0  0  0  0
  8 19  1  0  0  0  0
  9 27  1  0  0  0  0
  9 53  1  0  0  0  0
 10 11  1  0  0  0  0
 10 12  1  0  0  0  0
 10 28  1  0  0  0  0
 11 13  1  0  0  0  0
 11 29  1  0  0  0  0
 12 14  1  0  0  0  0
 12 30  1  0  0  0  0
 13 15  1  1  0  0  0
 13 31  1  0  0  0  0
 14 32  1  0  0  0  0
 15 33  1  0  0  0  0
 15 34  1  0  0  0  0
 16 17  1  0  0  0  0
 16 38  1  0  0  0  0
 16 39  1  0  0  0  0
 17 18  1  0  0  0  0
 17 40  1  0  0  0  0
 18 42  1  0  0  0  0
 18 43  1  0  0  0  0
 19 20  1  0  0  0  0
 19 45  1  0  0  0  0
 19 46  1  0  0  0  0
 20 21  2  3  0  0  0
 20 47  1  0  0  0  0
 21 22  1  0  0  0  0
 21 48  1  0  0  0  0
 22 23  2  0  0  0  0
 22 24  1  0  0  0  0
 23 25  1  0  0  0  0
 23 49  1  0  0  0  0
 24 26  2  0  0  0  0
 24 50  1  0  0  0  0
 25 27  2  0  0  0  0
 25 51  1  0  0  0  0
 26 27  1  0  0  0  0
 26 52  1  0  0  0  0
M  END
> <PUBCHEM_COMPOUND_CID>
70501462

> <PUBCHEM_COMPOUND_CANONICALIZED>
1

> <PUBCHEM_CACTVS_COMPLEXITY>
439

> <PUBCHEM_CACTVS_HBOND_ACCEPTOR>
9

> <PUBCHEM_CACTVS_HBOND_DONOR>
6

> <PUBCHEM_CACTVS_ROTATABLE_BOND>
9

> <PUBCHEM_CACTVS_SUBSKEYS>
AAADceB4PAAAAAAAAAAAAAAAAAAAAAAAAAA0QAAAAAAAAAABAAAAGgAACAAADBSwmAMwDoAABgCAAiBCAAACAAAgIAAIiAAGCIgZNiKCMRKicAAlwBEPuAfA4AwOIAAAAAAAAABAAAAAAAAAAAAAAAAAAA==

> <PUBCHEM_IUPAC_OPENEYE_NAME>
(2R,3R,4S,5S,6R)-2-[2-hydroxy-3-[3-(4-hydroxyphenyl)allyloxy]propoxy]-6-(hydroxymethyl)tetrahydropyran-3,4,5-triol

> <PUBCHEM_IUPAC_CAS_NAME>
(2R,3R,4S,5S,6R)-2-[2-hydroxy-3-[3-(4-hydroxyphenyl)prop-2-enoxy]propoxy]-6-(hydroxymethyl)oxane-3,4,5-triol

> <PUBCHEM_IUPAC_NAME_MARKUP>
(2<I>R</I>,3<I>R</I>,4<I>S</I>,5<I>S</I>,6<I>R</I>)-2-[2-hydroxy-3-[3-(4-hydroxyphenyl)prop-2-enoxy]propoxy]-6-(hydroxymethyl)oxane-3,4,5-triol

> <PUBCHEM_IUPAC_NAME>
(2R,3R,4S,5S,6R)-2-[2-hydroxy-3-[3-(4-hydroxyphenyl)prop-2-enoxy]propoxy]-6-(hydroxymethyl)oxane-3,4,5-triol

> <PUBCHEM_IUPAC_SYSTEMATIC_NAME>
(2R,3S,4S,5R,6R)-2-(hydroxymethyl)-6-[3-[3-(4-hydroxyphenyl)prop-2-enoxy]-2-oxidanyl-propoxy]oxane-3,4,5-triol

> <PUBCHEM_IUPAC_TRADITIONAL_NAME>
(2R,3R,4S,5S,6R)-2-[2-hydroxy-3-[3-(4-hydroxyphenyl)allyloxy]propoxy]-6-methylol-tetrahydropyran-3,4,5-triol

> <PUBCHEM_IUPAC_INCHI>
InChI=1S/C18H26O9/c19-8-14-15(22)16(23)17(24)18(27-14)26-10-13(21)9-25-7-1-2-11-3-5-12(20)6-4-11/h1-6,13-24H,7-10H2/t13?,14-,15-,16+,17-,18-/m1/s1

> <PUBCHEM_IUPAC_INCHIKEY>
IJKRMSDHONZNNP-CWMPHREQSA-N

> <PUBCHEM_XLOGP3_AA>
-1

> <PUBCHEM_EXACT_MASS>
386.15768240

> <PUBCHEM_MOLECULAR_FORMULA>
C18H26O9

> <PUBCHEM_MOLECULAR_WEIGHT>
386.4

> <PUBCHEM_OPENEYE_CAN_SMILES>
C1=CC(=CC=C1C=CCOCC(COC2C(C(C(C(O2)CO)O)O)O)O)O

> <PUBCHEM_OPENEYE_ISO_SMILES>
C1=CC(=CC=C1C=CCOCC(CO[C@H]2[C@@H]([C@H]([C@@H]([C@H](O2)CO)O)O)O)O)O

> <PUBCHEM_CACTVS_TPSA>
149

> <PUBCHEM_MONOISOTOPIC_WEIGHT>
386.15768240

> <PUBCHEM_TOTAL_CHARGE>
0

> <PUBCHEM_HEAVY_ATOM_COUNT>
27

> <PUBCHEM_ATOM_DEF_STEREO_COUNT>
5

> <PUBCHEM_ATOM_UDEF_STEREO_COUNT>
1

> <PUBCHEM_BOND_DEF_STEREO_COUNT>
0

> <PUBCHEM_BOND_UDEF_STEREO_COUNT>
1

> <PUBCHEM_ISOTOPIC_ATOM_COUNT>
0

> <PUBCHEM_COMPONENT_COUNT>
1

> <PUBCHEM_CACTVS_TAUTO_COUNT>
-1

> <PUBCHEM_COORDINATE_TYPE>
1
5
255

> <PUBCHEM_BONDANNOTATIONS>
13  15  5
14  2  5
20  21  1
22  23  8
22  24  8
23  25  8
24  26  8
25  27  8
26  27  8
10  3  5
11  4  6
12  5  6
17  7  3

$$$$
