 
  -OEChem-10192104372D

 61 64  0     1  0  0  0  0  0999 V2000
    5.1350   -0.0628    0.0000 O   0  0  0  0  0  0  0  0  0  0  0  0
    9.4641   -1.6073    0.0000 O   0  0  0  0  0  0  0  0  0  0  0  0
    6.8671   -0.0628    0.0000 O   0  0  0  0  0  0  0  0  0  0  0  0
    8.6155   -0.0974    0.0000 O   0  0  0  0  0  0  0  0  0  0  0  0
    5.1350   -3.0628    0.0000 O   0  0  0  0  0  0  0  0  0  0  0  0
   12.0793   -0.1375    0.0000 O   0  0  0  0  0  0  0  0  0  0  0  0
    6.8671   -2.0628    0.0000 O   0  0  0  0  0  0  0  0  0  0  0  0
   10.3590    0.8825    0.0000 O   0  0  0  0  0  0  0  0  0  0  0  0
    3.4030   -2.0628    0.0000 O   0  0  0  0  0  0  0  0  0  0  0  0
   12.0562   -2.1373    0.0000 O   0  0  0  0  0  0  0  0  0  0  0  0
    2.5369   -0.5628    0.0000 O   0  0  0  0  0  0  0  0  0  0  0  0
   11.1729   -3.6272    0.0000 O   0  0  0  0  0  0  0  0  0  0  0  0
    3.4030    0.9372    0.0000 O   0  0  0  0  0  0  0  0  0  0  0  0
    9.4410   -3.6072    0.0000 O   0  0  0  0  0  0  0  0  0  0  0  0
    6.8671    3.9372    0.0000 O   0  0  0  0  0  0  0  0  0  0  0  0
    5.1350   -2.0628    0.0000 C   0  0  2  0  0  0  0  0  0  0  0  0
   11.2076   -0.6274    0.0000 C   0  0  2  0  0  0  0  0  0  0  0  0
    6.0010   -1.5628    0.0000 C   0  0  2  0  0  0  0  0  0  0  0  0
   10.3474   -0.1174    0.0000 C   0  0  2  0  0  0  0  0  0  0  0  0
    4.2690   -1.5628    0.0000 C   0  0  1  0  0  0  0  0  0  0  0  0
   11.1960   -1.6274    0.0000 C   0  0  1  0  0  0  0  0  0  0  0  0
    6.0010   -0.5628    0.0000 C   0  0  3  0  0  0  0  0  0  0  0  0
    9.4756   -0.6074    0.0000 C   0  0  3  0  0  0  0  0  0  0  0  0
    4.2690   -0.5628    0.0000 C   0  0  1  0  0  0  0  0  0  0  0  0
   10.3243   -2.1173    0.0000 C   0  0  1  0  0  0  0  0  0  0  0  0
    7.7331    1.4372    0.0000 C   0  0  0  0  0  0  0  0  0  0  0  0
    6.8671    0.9372    0.0000 C   0  0  0  0  0  0  0  0  0  0  0  0
    8.6270    0.9025    0.0000 C   0  0  0  0  0  0  0  0  0  0  0  0
    3.4030   -0.0628    0.0000 C   0  0  0  0  0  0  0  0  0  0  0  0
   10.3127   -3.1172    0.0000 C   0  0  0  0  0  0  0  0  0  0  0  0
    7.7331    2.4372    0.0000 C   0  0  0  0  0  0  0  0  0  0  0  0
    6.0010    1.4372    0.0000 C   0  0  0  0  0  0  0  0  0  0  0  0
    9.5331    1.4164    0.0000 C   0  0  0  0  0  0  0  0  0  0  0  0
    6.8671    2.9372    0.0000 C   0  0  0  0  0  0  0  0  0  0  0  0
    8.6270    2.9718    0.0000 C   0  0  0  0  0  0  0  0  0  0  0  0
    6.0010    2.4372    0.0000 C   0  0  0  0  0  0  0  0  0  0  0  0
    9.5331    2.4580    0.0000 C   0  0  0  0  0  0  0  0  0  0  0  0
    4.5981   -2.3728    0.0000 H   0  0  0  0  0  0  0  0  0  0  0  0
   11.2148   -0.0075    0.0000 H   0  0  0  0  0  0  0  0  0  0  0  0
    6.0010   -2.1828    0.0000 H   0  0  0  0  0  0  0  0  0  0  0  0
    9.8141    0.1987    0.0000 H   0  0  0  0  0  0  0  0  0  0  0  0
    3.7320   -1.2528    0.0000 H   0  0  0  0  0  0  0  0  0  0  0  0
   11.1889   -2.2473    0.0000 H   0  0  0  0  0  0  0  0  0  0  0  0
    6.5380   -0.8728    0.0000 H   0  0  0  0  0  0  0  0  0  0  0  0
    8.9352   -0.9112    0.0000 H   0  0  0  0  0  0  0  0  0  0  0  0
    4.2690    0.0572    0.0000 H   0  0  0  0  0  0  0  0  0  0  0  0
    9.7838   -2.4211    0.0000 H   0  0  0  0  0  0  0  0  0  0  0  0
    5.6720   -3.3728    0.0000 H   0  0  0  0  0  0  0  0  0  0  0  0
   12.0865    0.4825    0.0000 H   0  0  0  0  0  0  0  0  0  0  0  0
    7.4040   -1.7528    0.0000 H   0  0  0  0  0  0  0  0  0  0  0  0
   10.8994    1.1863    0.0000 H   0  0  0  0  0  0  0  0  0  0  0  0
    3.4030   -2.6828    0.0000 H   0  0  0  0  0  0  0  0  0  0  0  0
   12.5967   -1.8336    0.0000 H   0  0  0  0  0  0  0  0  0  0  0  0
    5.4641    1.1272    0.0000 H   0  0  0  0  0  0  0  0  0  0  0  0
   10.0688    1.1043    0.0000 H   0  0  0  0  0  0  0  0  0  0  0  0
    8.6199    3.5918    0.0000 H   0  0  0  0  0  0  0  0  0  0  0  0
    5.4641    2.7472    0.0000 H   0  0  0  0  0  0  0  0  0  0  0  0
   10.0688    2.7701    0.0000 H   0  0  0  0  0  0  0  0  0  0  0  0
    2.0000   -0.2528    0.0000 H   0  0  0  0  0  0  0  0  0  0  0  0
   11.1657   -4.2472    0.0000 H   0  0  0  0  0  0  0  0  0  0  0  0
    6.3301    4.2472    0.0000 H   0  0  0  0  0  0  0  0  0  0  0  0
  1 22  1  0  0  0  0
  1 24  1  0  0  0  0
  2 23  1  0  0  0  0
  2 25  1  0  0  0  0
  3 22  1  0  0  0  0
  3 27  1  0  0  0  0
  4 23  1  0  0  0  0
  4 28  1  0  0  0  0
 16  5  1  1  0  0  0
  5 48  1  0  0  0  0
 17  6  1  1  0  0  0
  6 49  1  0  0  0  0
 18  7  1  6  0  0  0
  7 50  1  0  0  0  0
 19  8  1  6  0  0  0
  8 51  1  0  0  0  0
 20  9  1  6  0  0  0
  9 52  1  0  0  0  0
 21 10  1  6  0  0  0
 10 53  1  0  0  0  0
 11 29  1  0  0  0  0
 11 59  1  0  0  0  0
 12 30  1  0  0  0  0
 12 60  1  0  0  0  0
 13 29  2  0  0  0  0
 14 30  2  0  0  0  0
 15 34  1  0  0  0  0
 15 61  1  0  0  0  0
 16 18  1  0  0  0  0
 16 20  1  0  0  0  0
 16 38  1  0  0  0  0
 17 19  1  0  0  0  0
 17 21  1  0  0  0  0
 17 39  1  0  0  0  0
 18 22  1  0  0  0  0
 18 40  1  0  0  0  0
 19 23  1  0  0  0  0
 19 41  1  0  0  0  0
 20 24  1  0  0  0  0
 20 42  1  0  0  0  0
 21 25  1  0  0  0  0
 21 43  1  0  0  0  0
 22 44  1  0  0  0  0
 23 45  1  0  0  0  0
 24 29  1  1  0  0  0
 24 46  1  0  0  0  0
 25 30  1  1  0  0  0
 25 47  1  0  0  0  0
 26 27  2  0  0  0  0
 26 28  1  0  0  0  0
 26 31  1  0  0  0  0
 27 32  1  0  0  0  0
 28 33  2  0  0  0  0
 31 34  2  0  0  0  0
 31 35  1  0  0  0  0
 32 36  2  0  0  0  0
 32 54  1  0  0  0  0
 33 37  1  0  0  0  0
 33 55  1  0  0  0  0
 34 36  1  0  0  0  0
 35 37  2  0  0  0  0
 35 56  1  0  0  0  0
 36 57  1  0  0  0  0
 37 58  1  0  0  0  0
M  END
> <PUBCHEM_COMPOUND_CID>
91420862

> <PUBCHEM_COMPOUND_CANONICALIZED>
1

> <PUBCHEM_CACTVS_COMPLEXITY>
826

> <PUBCHEM_CACTVS_HBOND_ACCEPTOR>
15

> <PUBCHEM_CACTVS_HBOND_DONOR>
9

> <PUBCHEM_CACTVS_ROTATABLE_BOND>
6

> <PUBCHEM_CACTVS_SUBSKEYS>
AAADceB4PAAAAAAAAAAAAAAAAAAAAAAAAAA0aIEAAAAAAADBUAAAGgAACAAADBSwmAMwDsAABgCIAiDSCAICCAAgIAAIiAFGCIgdNzaGMR6ieCCl4BUPuAfK7LxOgQABAAAYAAACAAIAADAAAAAAAAAAAA==

> <PUBCHEM_IUPAC_OPENEYE_NAME>
(2S,3S,4S,5R)-6-[[8-[(3R,4S,5S,6S)-6-carboxy-3,4,5-trihydroxy-tetrahydropyran-2-yl]oxy-4-hydroxy-1-naphthyl]oxy]-3,4,5-trihydroxy-tetrahydropyran-2-carboxylic acid

> <PUBCHEM_IUPAC_CAS_NAME>
(2S,3S,4S,5R)-6-[[8-[[(3R,4S,5S,6S)-6-carboxy-3,4,5-trihydroxy-2-oxanyl]oxy]-4-hydroxy-1-naphthalenyl]oxy]-3,4,5-trihydroxy-2-oxanecarboxylic acid

> <PUBCHEM_IUPAC_NAME_MARKUP>
(2<I>S</I>,3<I>S</I>,4<I>S</I>,5<I>R</I>)-6-[8-[(3<I>R</I>,4<I>S</I>,5<I>S</I>,6<I>S</I>)-6-carboxy-3,4,5-trihydroxyoxan-2-yl]oxy-4-hydroxynaphthalen-1-yl]oxy-3,4,5-trihydroxyoxane-2-carboxylic acid

> <PUBCHEM_IUPAC_NAME>
(2S,3S,4S,5R)-6-[8-[(3R,4S,5S,6S)-6-carboxy-3,4,5-trihydroxyoxan-2-yl]oxy-4-hydroxynaphthalen-1-yl]oxy-3,4,5-trihydroxyoxane-2-carboxylic acid

> <PUBCHEM_IUPAC_SYSTEMATIC_NAME>
(2S,3S,4S,5R)-6-[8-[(3R,4S,5S,6S)-6-carboxy-3,4,5-tris(oxidanyl)oxan-2-yl]oxy-4-oxidanyl-naphthalen-1-yl]oxy-3,4,5-tris(oxidanyl)oxane-2-carboxylic acid

> <PUBCHEM_IUPAC_TRADITIONAL_NAME>
(2S,3S,4S,5R)-6-[8-[(3R,4S,5S,6S)-6-carboxy-3,4,5-trihydroxy-tetrahydropyran-2-yl]oxy-4-hydroxy-1-naphthoxy]-3,4,5-trihydroxy-tetrahydropyran-2-carboxylic acid

> <PUBCHEM_IUPAC_INCHI>
InChI=1S/C22H24O15/c23-7-4-5-9(35-22-16(29)12(25)14(27)18(37-22)20(32)33)10-6(7)2-1-3-8(10)34-21-15(28)11(24)13(26)17(36-21)19(30)31/h1-5,11-18,21-29H,(H,30,31)(H,32,33)/t11-,12-,13-,14-,15+,16+,17-,18-,21?,22?/m0/s1

> <PUBCHEM_IUPAC_INCHIKEY>
KUMUZIVINRPCNQ-SPAYNOQFSA-N

> <PUBCHEM_XLOGP3_AA>
-1

> <PUBCHEM_EXACT_MASS>
528.11152005

> <PUBCHEM_MOLECULAR_FORMULA>
C22H24O15

> <PUBCHEM_MOLECULAR_WEIGHT>
528.4

> <PUBCHEM_OPENEYE_CAN_SMILES>
C1=CC2=C(C=CC(=C2C(=C1)OC3C(C(C(C(O3)C(=O)O)O)O)O)OC4C(C(C(C(O4)C(=O)O)O)O)O)O

> <PUBCHEM_OPENEYE_ISO_SMILES>
C1=CC2=C(C=CC(=C2C(=C1)OC3[C@@H]([C@H]([C@@H]([C@H](O3)C(=O)O)O)O)O)OC4[C@@H]([C@H]([C@@H]([C@H](O4)C(=O)O)O)O)O)O

> <PUBCHEM_CACTVS_TPSA>
253

> <PUBCHEM_MONOISOTOPIC_WEIGHT>
528.11152005

> <PUBCHEM_TOTAL_CHARGE>
0

> <PUBCHEM_HEAVY_ATOM_COUNT>
37

> <PUBCHEM_ATOM_DEF_STEREO_COUNT>
8

> <PUBCHEM_ATOM_UDEF_STEREO_COUNT>
2

> <PUBCHEM_BOND_DEF_STEREO_COUNT>
0

> <PUBCHEM_BOND_UDEF_STEREO_COUNT>
0

> <PUBCHEM_ISOTOPIC_ATOM_COUNT>
0

> <PUBCHEM_COMPONENT_COUNT>
1

> <PUBCHEM_CACTVS_TAUTO_COUNT>
-1

> <PUBCHEM_COORDINATE_TYPE>
1
5
255

> <PUBCHEM_BONDANNOTATIONS>
21  10  6
24  29  5
25  30  5
26  27  8
26  28  8
26  31  8
27  32  8
28  33  8
22  3  3
31  34  8
31  35  8
32  36  8
33  37  8
34  36  8
35  37  8
23  4  3
16  5  5
17  6  5
18  7  6
19  8  6
20  9  6

$$$$
