 
  -OEChem-10192103342D

 53 55  0     1  0  0  0  0  0999 V2000
    4.4569    2.7057    0.0000 P   0  0  3  0  0  0  0  0  0  0  0  0
    3.1697    3.8647    0.0000 P   0  0  0  0  0  0  0  0  0  0  0  0
    5.4653   -0.2133    0.0000 O   0  0  0  0  0  0  0  0  0  0  0  0
    7.0041    1.2867    0.0000 O   0  0  0  0  0  0  0  0  0  0  0  0
    7.0041   -1.7133    0.0000 O   0  0  0  0  0  0  0  0  0  0  0  0
    5.7441   -1.9734    0.0000 O   0  0  0  0  0  0  0  0  0  0  0  0
    4.7659    1.7547    0.0000 O   0  0  0  0  0  0  0  0  0  0  0  0
    6.4132    2.2899    0.0000 O   0  0  0  0  0  0  0  0  0  0  0  0
    3.5058    2.3967    0.0000 O   0  0  0  0  0  0  0  0  0  0  0  0
    5.4080    3.0148    0.0000 O   0  0  0  0  0  0  0  0  0  0  0  0
    2.1916    4.0726    0.0000 O   0  0  0  0  0  0  0  0  0  0  0  0
    3.3776    4.8429    0.0000 O   0  0  0  0  0  0  0  0  0  0  0  0
    2.9618    2.8866    0.0000 O   0  0  0  0  0  0  0  0  0  0  0  0
    7.0041    0.2867    0.0000 C   0  0  2  0  0  0  0  0  0  0  0  0
    7.0041   -0.7133    0.0000 C   0  0  1  0  0  0  0  0  0  0  0  0
    7.8707   -0.2133    0.0000 C   0  0  0  0  0  0  0  0  0  0  0  0
    6.0531    0.5957    0.0000 C   0  0  1  0  0  0  0  0  0  0  0  0
    6.0531   -1.0223    0.0000 C   0  0  1  0  0  0  0  0  0  0  0  0
    8.3707   -1.0793    0.0000 C   0  0  0  0  0  0  0  0  0  0  0  0
    8.3707    0.6527    0.0000 C   0  0  0  0  0  0  0  0  0  0  0  0
    5.7441    1.5468    0.0000 C   0  0  3  0  0  0  0  0  0  0  0  0
    4.7659   -2.1813    0.0000 C   0  0  0  0  0  0  0  0  0  0  0  0
    4.4569   -3.1323    0.0000 C   0  0  0  0  0  0  0  0  0  0  0  0
    4.1479    3.6568    0.0000 C   0  0  0  0  0  0  0  0  0  0  0  0
    5.1260   -3.8755    0.0000 C   0  0  0  0  0  0  0  0  0  0  0  0
    3.4788   -3.3402    0.0000 C   0  0  0  0  0  0  0  0  0  0  0  0
    4.8170   -4.8265    0.0000 C   0  0  0  0  0  0  0  0  0  0  0  0
    3.1697   -4.2913    0.0000 C   0  0  0  0  0  0  0  0  0  0  0  0
    3.8389   -5.0344    0.0000 C   0  0  0  0  0  0  0  0  0  0  0  0
    5.4407    0.6927    0.0000 H   0  0  0  0  0  0  0  0  0  0  0  0
    6.4915   -1.4607    0.0000 H   0  0  0  0  0  0  0  0  0  0  0  0
    7.8337   -1.3893    0.0000 H   0  0  0  0  0  0  0  0  0  0  0  0
    8.6807   -1.6163    0.0000 H   0  0  0  0  0  0  0  0  0  0  0  0
    8.9076   -0.7693    0.0000 H   0  0  0  0  0  0  0  0  0  0  0  0
    8.9076    0.3427    0.0000 H   0  0  0  0  0  0  0  0  0  0  0  0
    8.6807    1.1897    0.0000 H   0  0  0  0  0  0  0  0  0  0  0  0
    7.8337    0.9627    0.0000 H   0  0  0  0  0  0  0  0  0  0  0  0
    7.5411    1.5967    0.0000 H   0  0  0  0  0  0  0  0  0  0  0  0
    7.5411   -2.0233    0.0000 H   0  0  0  0  0  0  0  0  0  0  0  0
    5.5525    2.1364    0.0000 H   0  0  0  0  0  0  0  0  0  0  0  0
    4.7443   -1.5617    0.0000 H   0  0  0  0  0  0  0  0  0  0  0  0
    4.1520   -2.0950    0.0000 H   0  0  0  0  0  0  0  0  0  0  0  0
    6.2216    2.8796    0.0000 H   0  0  0  0  0  0  0  0  0  0  0  0
    4.7618    3.7431    0.0000 H   0  0  0  0  0  0  0  0  0  0  0  0
    4.1695    4.2764    0.0000 H   0  0  0  0  0  0  0  0  0  0  0  0
    3.3769    1.7903    0.0000 H   0  0  0  0  0  0  0  0  0  0  0  0
    5.7325   -3.7466    0.0000 H   0  0  0  0  0  0  0  0  0  0  0  0
    3.0639   -2.8795    0.0000 H   0  0  0  0  0  0  0  0  0  0  0  0
    5.2319   -5.2873    0.0000 H   0  0  0  0  0  0  0  0  0  0  0  0
    2.5633   -4.4202    0.0000 H   0  0  0  0  0  0  0  0  0  0  0  0
    3.6473   -5.6241    0.0000 H   0  0  0  0  0  0  0  0  0  0  0  0
    2.0000    4.6623    0.0000 H   0  0  0  0  0  0  0  0  0  0  0  0
    3.9673    5.0344    0.0000 H   0  0  0  0  0  0  0  0  0  0  0  0
  1  7  1  0  0  0  0
  1  9  1  0  0  0  0
  1 10  2  0  0  0  0
  1 24  1  0  0  0  0
  2 11  1  0  0  0  0
  2 12  1  0  0  0  0
  2 13  2  0  0  0  0
  2 24  1  0  0  0  0
  3 17  1  0  0  0  0
  3 18  1  0  0  0  0
 14  4  1  1  0  0  0
  4 38  1  0  0  0  0
 15  5  1  1  0  0  0
  5 39  1  0  0  0  0
 18  6  1  6  0  0  0
  6 22  1  0  0  0  0
  7 21  1  0  0  0  0
  8 21  1  0  0  0  0
  8 43  1  0  0  0  0
  9 46  1  0  0  0  0
 11 52  1  0  0  0  0
 12 53  1  0  0  0  0
 14 15  1  0  0  0  0
 14 16  1  0  0  0  0
 14 17  1  0  0  0  0
 15 16  1  0  0  0  0
 15 18  1  0  0  0  0
 16 19  1  0  0  0  0
 16 20  1  0  0  0  0
 17 21  1  6  0  0  0
 17 30  1  0  0  0  0
 18 31  1  0  0  0  0
 19 32  1  0  0  0  0
 19 33  1  0  0  0  0
 19 34  1  0  0  0  0
 20 35  1  0  0  0  0
 20 36  1  0  0  0  0
 20 37  1  0  0  0  0
 21 40  1  0  0  0  0
 22 23  1  0  0  0  0
 22 41  1  0  0  0  0
 22 42  1  0  0  0  0
 23 25  2  0  0  0  0
 23 26  1  0  0  0  0
 24 44  1  0  0  0  0
 24 45  1  0  0  0  0
 25 27  1  0  0  0  0
 25 47  1  0  0  0  0
 26 28  2  0  0  0  0
 26 48  1  0  0  0  0
 27 29  2  0  0  0  0
 27 49  1  0  0  0  0
 28 29  1  0  0  0  0
 28 50  1  0  0  0  0
 29 51  1  0  0  0  0
M  END
> <PUBCHEM_COMPOUND_CID>
88263113

> <PUBCHEM_COMPOUND_CANONICALIZED>
1

> <PUBCHEM_CACTVS_COMPLEXITY>
718

> <PUBCHEM_CACTVS_HBOND_ACCEPTOR>
11

> <PUBCHEM_CACTVS_HBOND_DONOR>
6

> <PUBCHEM_CACTVS_ROTATABLE_BOND>
8

> <PUBCHEM_CACTVS_SUBSKEYS>
AAADceB4PAMAAAAAAAAAAAAAGAAAASAAAAA0QAAAAAAAAAABAAAAGggACCAADlSwmAMyCIAABxCAQiBCAIACAAAgAAAIiAAACIgZNiKAMRiicAAlwAEPqAfA4DwPgAAAAAAAAAAAAAAAAAAAAAAAAAAAAA==

> <PUBCHEM_IUPAC_OPENEYE_NAME>
[[[(1R,2S,4R,5R)-4-benzyloxy-1,5-dihydroxy-6,6-dimethyl-3-oxabicyclo[3.1.0]hexan-2-yl]-hydroxy-methoxy]-hydroxy-phosphoryl]methylphosphonic acid

> <PUBCHEM_IUPAC_CAS_NAME>
[[[(1R,2S,4R,5R)-1,5-dihydroxy-6,6-dimethyl-4-phenylmethoxy-3-oxabicyclo[3.1.0]hexan-2-yl]-hydroxymethoxy]-hydroxyphosphoryl]methylphosphonic acid

> <PUBCHEM_IUPAC_NAME_MARKUP>
[[[(1<I>R</I>,2<I>S</I>,4<I>R</I>,5<I>R</I>)-1,5-dihydroxy-6,6-dimethyl-4-phenylmethoxy-3-oxabicyclo[3.1.0]hexan-2-yl]-hydroxymethoxy]-hydroxyphosphoryl]methylphosphonic acid

> <PUBCHEM_IUPAC_NAME>
[[[(1R,2S,4R,5R)-1,5-dihydroxy-6,6-dimethyl-4-phenylmethoxy-3-oxabicyclo[3.1.0]hexan-2-yl]-hydroxymethoxy]-hydroxyphosphoryl]methylphosphonic acid

> <PUBCHEM_IUPAC_SYSTEMATIC_NAME>
[[[(1R,2S,4R,5R)-6,6-dimethyl-1,5-bis(oxidanyl)-4-phenylmethoxy-3-oxabicyclo[3.1.0]hexan-2-yl]-oxidanyl-methoxy]-oxidanyl-phosphoryl]methylphosphonic acid

> <PUBCHEM_IUPAC_TRADITIONAL_NAME>
[[[(1R,2S,4R,5R)-4-benzoxy-1,5-dihydroxy-6,6-dimethyl-3-oxabicyclo[3.1.0]hexan-2-yl]-hydroxy-methoxy]-hydroxy-phosphoryl]methylphosphonic acid

> <PUBCHEM_IUPAC_INCHI>
InChI=1S/C16H24O11P2/c1-14(2)15(18)11(12(17)27-29(23,24)9-28(20,21)22)26-13(16(14,15)19)25-8-10-6-4-3-5-7-10/h3-7,11-13,17-19H,8-9H2,1-2H3,(H,23,24)(H2,20,21,22)/t11-,12?,13-,15+,16-/m1/s1

> <PUBCHEM_IUPAC_INCHIKEY>
AEINMAOWXXTSIT-XIYVACBCSA-N

> <PUBCHEM_XLOGP3_AA>
-2.2

> <PUBCHEM_EXACT_MASS>
454.07938557

> <PUBCHEM_MOLECULAR_FORMULA>
C16H24O11P2

> <PUBCHEM_MOLECULAR_WEIGHT>
454.30

> <PUBCHEM_OPENEYE_CAN_SMILES>
CC1(C2(C1(C(OC2C(O)OP(=O)(CP(=O)(O)O)O)OCC3=CC=CC=C3)O)O)C

> <PUBCHEM_OPENEYE_ISO_SMILES>
CC1([C@@]2([C@]1([C@@H](O[C@@H]2C(O)OP(=O)(CP(=O)(O)O)O)OCC3=CC=CC=C3)O)O)C

> <PUBCHEM_CACTVS_TPSA>
183

> <PUBCHEM_MONOISOTOPIC_WEIGHT>
454.07938557

> <PUBCHEM_TOTAL_CHARGE>
0

> <PUBCHEM_HEAVY_ATOM_COUNT>
29

> <PUBCHEM_ATOM_DEF_STEREO_COUNT>
4

> <PUBCHEM_ATOM_UDEF_STEREO_COUNT>
1

> <PUBCHEM_BOND_DEF_STEREO_COUNT>
0

> <PUBCHEM_BOND_UDEF_STEREO_COUNT>
0

> <PUBCHEM_ISOTOPIC_ATOM_COUNT>
0

> <PUBCHEM_COMPONENT_COUNT>
1

> <PUBCHEM_CACTVS_TAUTO_COUNT>
-1

> <PUBCHEM_COORDINATE_TYPE>
1
5
255

> <PUBCHEM_BONDANNOTATIONS>
17  21  6
23  25  8
23  26  8
25  27  8
26  28  8
27  29  8
28  29  8
14  4  5
15  5  5
18  6  6
21  8  3

$$$$
