 
  -OEChem-10192103542D

 89 91  0     1  0  0  0  0  0999 V2000
    7.9900   -2.2581    0.0000 O   0  0  0  0  0  0  0  0  0  0  0  0
    6.2580    0.7419    0.0000 O   0  0  0  0  0  0  0  0  0  0  0  0
    6.2580   -1.2581    0.0000 O   0  0  0  0  0  0  0  0  0  0  0  0
    6.2580   -2.2581    0.0000 O   0  0  0  0  0  0  0  0  0  0  0  0
    6.5587    2.4477    0.0000 O   0  0  0  0  0  0  0  0  0  0  0  0
    7.9900   -4.2581    0.0000 O   0  0  0  0  0  0  0  0  0  0  0  0
    3.6043    2.9686    0.0000 O   0  0  0  0  0  0  0  0  0  0  0  0
    4.5259   -4.2581    0.0000 O   0  0  0  0  0  0  0  0  0  0  0  0
    4.8899    4.5007    0.0000 O   0  0  0  0  0  0  0  0  0  0  0  0
   10.5881    0.2419    0.0000 O   0  0  0  0  0  0  0  0  0  0  0  0
    3.6599   -2.7581    0.0000 O   0  0  0  0  0  0  0  0  0  0  0  0
   11.4541   -2.2581    0.0000 O   0  0  0  0  0  0  0  0  0  0  0  0
    9.7221   -1.2581    0.0000 N   0  0  0  0  0  0  0  0  0  0  0  0
    8.3320    1.6816    0.0000 N   0  0  0  0  0  0  0  0  0  0  0  0
    6.2580   -5.2581    0.0000 N   0  0  0  0  0  0  0  0  0  0  0  0
    4.2884    1.0892    0.0000 N   0  0  0  0  0  0  0  0  0  0  0  0
    6.5175    5.0931    0.0000 N   0  0  0  0  0  0  0  0  0  0  0  0
    3.1750   -0.2376    0.0000 N   0  0  0  0  0  0  0  0  0  0  0  0
    2.5826    1.3900    0.0000 N   0  0  0  0  0  0  0  0  0  0  0  0
   14.0522   -0.7581    0.0000 N   0  0  0  0  0  0  0  0  0  0  0  0
    7.9900   -1.2581    0.0000 C   0  0  1  0  0  0  0  0  0  0  0  0
    7.1240    0.2419    0.0000 C   0  0  3  0  0  0  0  0  0  0  0  0
    8.8560   -0.7581    0.0000 C   0  0  1  0  0  0  0  0  0  0  0  0
    7.1240   -0.7581    0.0000 C   0  0  2  0  0  0  0  0  0  0  0  0
    7.9900    0.7419    0.0000 C   0  0  2  0  0  0  0  0  0  0  0  0
    8.8560    0.2419    0.0000 C   0  0  0  0  0  0  0  0  0  0  0  0
    7.1240   -2.7581    0.0000 C   0  0  1  0  0  0  0  0  0  0  0  0
    5.9159    1.6816    0.0000 C   0  0  1  0  0  0  0  0  0  0  0  0
    7.1240   -3.7581    0.0000 C   0  0  1  0  0  0  0  0  0  0  0  0
    4.9311    1.8553    0.0000 C   0  0  1  0  0  0  0  0  0  0  0  0
    6.2580   -4.2581    0.0000 C   0  0  2  0  0  0  0  0  0  0  0  0
    4.5891    2.7950    0.0000 C   0  0  2  0  0  0  0  0  0  0  0  0
    5.3919   -3.7581    0.0000 C   0  0  1  0  0  0  0  0  0  0  0  0
    5.3919   -2.7581    0.0000 C   0  0  1  0  0  0  0  0  0  0  0  0
    5.2319    3.5610    0.0000 C   0  0  1  0  0  0  0  0  0  0  0  0
    6.2167    3.3874    0.0000 C   0  0  1  0  0  0  0  0  0  0  0  0
   10.5881   -0.7581    0.0000 C   0  0  0  0  0  0  0  0  0  0  0  0
    6.8595    4.1534    0.0000 C   0  0  0  0  0  0  0  0  0  0  0  0
    4.5259   -2.2581    0.0000 C   0  0  0  0  0  0  0  0  0  0  0  0
   11.4541   -1.2581    0.0000 C   0  0  2  0  0  0  0  0  0  0  0  0
   12.3201   -0.7581    0.0000 C   0  0  0  0  0  0  0  0  0  0  0  0
    3.3486    0.7472    0.0000 C   0  0  0  0  0  0  0  0  0  0  0  0
   13.1862   -1.2581    0.0000 C   0  0  0  0  0  0  0  0  0  0  0  0
    8.5270   -1.5681    0.0000 H   0  0  0  0  0  0  0  0  0  0  0  0
    7.1240    0.8619    0.0000 H   0  0  0  0  0  0  0  0  0  0  0  0
    9.3930   -0.4481    0.0000 H   0  0  0  0  0  0  0  0  0  0  0  0
    6.5870   -0.4481    0.0000 H   0  0  0  0  0  0  0  0  0  0  0  0
    7.5151    1.1405    0.0000 H   0  0  0  0  0  0  0  0  0  0  0  0
    9.4666    0.1343    0.0000 H   0  0  0  0  0  0  0  0  0  0  0  0
    9.0681    0.8246    0.0000 H   0  0  0  0  0  0  0  0  0  0  0  0
    7.6609   -3.0681    0.0000 H   0  0  0  0  0  0  0  0  0  0  0  0
    5.5174    1.2067    0.0000 H   0  0  0  0  0  0  0  0  0  0  0  0
    9.7221   -1.8781    0.0000 H   0  0  0  0  0  0  0  0  0  0  0  0
    7.1240   -4.3781    0.0000 H   0  0  0  0  0  0  0  0  0  0  0  0
    4.3206    1.9630    0.0000 H   0  0  0  0  0  0  0  0  0  0  0  0
    5.7210   -4.5681    0.0000 H   0  0  0  0  0  0  0  0  0  0  0  0
    8.9426    1.7893    0.0000 H   0  0  0  0  0  0  0  0  0  0  0  0
    7.9335    2.1566    0.0000 H   0  0  0  0  0  0  0  0  0  0  0  0
    4.1906    2.3200    0.0000 H   0  0  0  0  0  0  0  0  0  0  0  0
    4.8550   -3.4481    0.0000 H   0  0  0  0  0  0  0  0  0  0  0  0
    5.3919   -2.1381    0.0000 H   0  0  0  0  0  0  0  0  0  0  0  0
    4.6213    3.6687    0.0000 H   0  0  0  0  0  0  0  0  0  0  0  0
    6.8273    3.2797    0.0000 H   0  0  0  0  0  0  0  0  0  0  0  0
    5.7210   -0.9481    0.0000 H   0  0  0  0  0  0  0  0  0  0  0  0
    7.2580    3.6785    0.0000 H   0  0  0  0  0  0  0  0  0  0  0  0
    7.3964    4.4634    0.0000 H   0  0  0  0  0  0  0  0  0  0  0  0
    4.9244   -1.7831    0.0000 H   0  0  0  0  0  0  0  0  0  0  0  0
    4.1274   -1.7831    0.0000 H   0  0  0  0  0  0  0  0  0  0  0  0
    5.7210   -5.5681    0.0000 H   0  0  0  0  0  0  0  0  0  0  0  0
    6.7949   -5.5681    0.0000 H   0  0  0  0  0  0  0  0  0  0  0  0
   11.9911   -1.5681    0.0000 H   0  0  0  0  0  0  0  0  0  0  0  0
    8.5270   -3.9481    0.0000 H   0  0  0  0  0  0  0  0  0  0  0  0
    3.3922    3.5512    0.0000 H   0  0  0  0  0  0  0  0  0  0  0  0
    4.5259   -4.8781    0.0000 H   0  0  0  0  0  0  0  0  0  0  0  0
    4.2793    4.6084    0.0000 H   0  0  0  0  0  0  0  0  0  0  0  0
   12.7187   -0.2831    0.0000 H   0  0  0  0  0  0  0  0  0  0  0  0
   11.9216   -0.2831    0.0000 H   0  0  0  0  0  0  0  0  0  0  0  0
    6.9160    5.5681    0.0000 H   0  0  0  0  0  0  0  0  0  0  0  0
    5.9069    5.2008    0.0000 H   0  0  0  0  0  0  0  0  0  0  0  0
    3.1230   -2.4481    0.0000 H   0  0  0  0  0  0  0  0  0  0  0  0
   11.9910   -2.5681    0.0000 H   0  0  0  0  0  0  0  0  0  0  0  0
   12.7876   -1.7330    0.0000 H   0  0  0  0  0  0  0  0  0  0  0  0
   13.5847   -1.7330    0.0000 H   0  0  0  0  0  0  0  0  0  0  0  0
    2.5923   -0.4496    0.0000 H   0  0  0  0  0  0  0  0  0  0  0  0
    3.6499   -0.6361    0.0000 H   0  0  0  0  0  0  0  0  0  0  0  0
    2.0000    1.1780    0.0000 H   0  0  0  0  0  0  0  0  0  0  0  0
    2.6903    2.0006    0.0000 H   0  0  0  0  0  0  0  0  0  0  0  0
   14.5891   -1.0681    0.0000 H   0  0  0  0  0  0  0  0  0  0  0  0
   14.0522   -0.1381    0.0000 H   0  0  0  0  0  0  0  0  0  0  0  0
 21  1  1  6  0  0  0
 27  1  1  6  0  0  0
  2 22  1  0  0  0  0
 28  2  1  6  0  0  0
 24  3  1  1  0  0  0
  3 64  1  0  0  0  0
  4 27  1  0  0  0  0
  4 34  1  0  0  0  0
  5 28  1  0  0  0  0
  5 36  1  0  0  0  0
 29  6  1  6  0  0  0
  6 72  1  0  0  0  0
 32  7  1  1  0  0  0
  7 73  1  0  0  0  0
 33  8  1  6  0  0  0
  8 74  1  0  0  0  0
 35  9  1  6  0  0  0
  9 75  1  0  0  0  0
 10 37  2  0  0  0  0
 11 39  1  0  0  0  0
 11 80  1  0  0  0  0
 40 12  1  6  0  0  0
 12 81  1  0  0  0  0
 23 13  1  1  0  0  0
 13 37  1  0  0  0  0
 13 53  1  0  0  0  0
 25 14  1  1  0  0  0
 14 57  1  0  0  0  0
 14 58  1  0  0  0  0
 31 15  1  1  0  0  0
 15 69  1  0  0  0  0
 15 70  1  0  0  0  0
 30 16  1  6  0  0  0
 16 42  2  0  0  0  0
 17 38  1  0  0  0  0
 17 78  1  0  0  0  0
 17 79  1  0  0  0  0
 18 42  1  0  0  0  0
 18 84  1  0  0  0  0
 18 85  1  0  0  0  0
 19 42  1  0  0  0  0
 19 86  1  0  0  0  0
 19 87  1  0  0  0  0
 20 43  1  0  0  0  0
 20 88  1  0  0  0  0
 20 89  1  0  0  0  0
 21 23  1  0  0  0  0
 21 24  1  0  0  0  0
 21 44  1  0  0  0  0
 22 24  1  0  0  0  0
 22 25  1  0  0  0  0
 22 45  1  0  0  0  0
 23 26  1  0  0  0  0
 23 46  1  0  0  0  0
 24 47  1  0  0  0  0
 25 26  1  0  0  0  0
 25 48  1  0  0  0  0
 26 49  1  0  0  0  0
 26 50  1  0  0  0  0
 27 29  1  0  0  0  0
 27 51  1  0  0  0  0
 28 30  1  0  0  0  0
 28 52  1  0  0  0  0
 29 31  1  0  0  0  0
 29 54  1  0  0  0  0
 30 32  1  0  0  0  0
 30 55  1  0  0  0  0
 31 33  1  0  0  0  0
 31 56  1  0  0  0  0
 32 35  1  0  0  0  0
 32 59  1  0  0  0  0
 33 34  1  0  0  0  0
 33 60  1  0  0  0  0
 34 39  1  1  0  0  0
 34 61  1  0  0  0  0
 35 36  1  0  0  0  0
 35 62  1  0  0  0  0
 36 38  1  1  0  0  0
 36 63  1  0  0  0  0
 37 40  1  0  0  0  0
 38 65  1  0  0  0  0
 38 66  1  0  0  0  0
 39 67  1  0  0  0  0
 39 68  1  0  0  0  0
 40 41  1  0  0  0  0
 40 71  1  0  0  0  0
 41 43  1  0  0  0  0
 41 76  1  0  0  0  0
 41 77  1  0  0  0  0
 43 82  1  0  0  0  0
 43 83  1  0  0  0  0
M  END
> <PUBCHEM_COMPOUND_CID>
67816339

> <PUBCHEM_COMPOUND_CANONICALIZED>
1

> <PUBCHEM_CACTVS_COMPLEXITY>
937

> <PUBCHEM_CACTVS_HBOND_ACCEPTOR>
17

> <PUBCHEM_CACTVS_HBOND_DONOR>
14

> <PUBCHEM_CACTVS_ROTATABLE_BOND>
11

> <PUBCHEM_CACTVS_SUBSKEYS>
AAADcfB7/AAAAAAAAAAAAAAAAAAAAAAAAAA0SIAAAAAAAAAAAAAAHgAQCAAACDzxgAcBCALABgAoAAEQNAIAAAEAAAAAAIFIAAATEBIAwAAnQAAHFgCXAAH0cA8AAAAAAAAAAAAAgAAUCACgAAAAAAAAAA==

> <PUBCHEM_IUPAC_OPENEYE_NAME>
(2S)-4-amino-N-[(1R,2S,3S,5S)-5-amino-2-[(2S,3R,4S,5S,6R)-4-amino-3,5-dihydroxy-6-(hydroxymethyl)tetrahydropyran-2-yl]oxy-4-[(2R,3R,4R,5S,6R)-6-(aminomethyl)-3-guanidino-4,5-dihydroxy-tetrahydropyran-2-yl]oxy-3-hydroxy-cyclohexyl]-2-hydroxy-butanamide

> <PUBCHEM_IUPAC_CAS_NAME>
(2S)-4-amino-N-[(1R,2S,3S,5S)-5-amino-2-[[(2S,3R,4S,5S,6R)-4-amino-3,5-dihydroxy-6-(hydroxymethyl)-2-oxanyl]oxy]-4-[[(2R,3R,4R,5S,6R)-6-(aminomethyl)-3-(diaminomethylideneamino)-4,5-dihydroxy-2-oxanyl]oxy]-3-hydroxycyclohexyl]-2-hydroxybutanamide

> <PUBCHEM_IUPAC_NAME_MARKUP>
(2<I>S</I>)-4-amino-<I>N</I>-[(1<I>R</I>,2<I>S</I>,3<I>S</I>,5<I>S</I>)-5-amino-2-[(2<I>S</I>,3<I>R</I>,4<I>S</I>,5<I>S</I>,6<I>R</I>)-4-amino-3,5-dihydroxy-6-(hydroxymethyl)oxan-2-yl]oxy-4-[(2<I>R</I>,3<I>R</I>,4<I>R</I>,5<I>S</I>,6<I>R</I>)-6-(aminomethyl)-3-(diaminomethylideneamino)-4,5-dihydroxyoxan-2-yl]oxy-3-hydroxycyclohexyl]-2-hydroxybutanamide

> <PUBCHEM_IUPAC_NAME>
(2S)-4-amino-N-[(1R,2S,3S,5S)-5-amino-2-[(2S,3R,4S,5S,6R)-4-amino-3,5-dihydroxy-6-(hydroxymethyl)oxan-2-yl]oxy-4-[(2R,3R,4R,5S,6R)-6-(aminomethyl)-3-(diaminomethylideneamino)-4,5-dihydroxyoxan-2-yl]oxy-3-hydroxycyclohexyl]-2-hydroxybutanamide

> <PUBCHEM_IUPAC_SYSTEMATIC_NAME>
(2S)-N-[(1R,2S,3S,5S)-4-[(2R,3R,4R,5S,6R)-6-(aminomethyl)-3-[bis(azanyl)methylideneamino]-4,5-bis(oxidanyl)oxan-2-yl]oxy-5-azanyl-2-[(2S,3R,4S,5S,6R)-4-azanyl-6-(hydroxymethyl)-3,5-bis(oxidanyl)oxan-2-yl]oxy-3-oxidanyl-cyclohexyl]-4-azanyl-2-oxidanyl-butanamide

> <PUBCHEM_IUPAC_TRADITIONAL_NAME>
(2S)-4-amino-N-[(1R,2S,3S,5S)-5-amino-2-[(2S,3R,4S,5S,6R)-4-amino-3,5-dihydroxy-6-methylol-tetrahydropyran-2-yl]oxy-4-[(2R,3R,4R,5S,6R)-6-(aminomethyl)-3-guanidino-4,5-dihydroxy-tetrahydropyran-2-yl]oxy-3-hydroxy-cyclohexyl]-2-hydroxy-butyramide

> <PUBCHEM_IUPAC_INCHI>
InChI=1S/C23H46N8O12/c24-2-1-8(33)20(39)30-7-3-6(26)18(42-21-12(31-23(28)29)16(37)14(35)9(4-25)40-21)17(38)19(7)43-22-15(36)11(27)13(34)10(5-32)41-22/h6-19,21-22,32-38H,1-5,24-27H2,(H,30,39)(H4,28,29,31)/t6-,7+,8-,9+,10+,11-,12+,13+,14+,15+,16+,17-,18?,19-,21+,22+/m0/s1

> <PUBCHEM_IUPAC_INCHIKEY>
GPCRPMAOTLKVBY-JPAXVUNPSA-N

> <PUBCHEM_XLOGP3_AA>
-8.8

> <PUBCHEM_EXACT_MASS>
626.32351893

> <PUBCHEM_MOLECULAR_FORMULA>
C23H46N8O12

> <PUBCHEM_MOLECULAR_WEIGHT>
626.7

> <PUBCHEM_OPENEYE_CAN_SMILES>
C1C(C(C(C(C1NC(=O)C(CCN)O)OC2C(C(C(C(O2)CO)O)N)O)O)OC3C(C(C(C(O3)CN)O)O)N=C(N)N)N

> <PUBCHEM_OPENEYE_ISO_SMILES>
C1[C@H]([C@@H]([C@H](C([C@H]1N)O[C@@H]2[C@@H]([C@H]([C@@H]([C@H](O2)CN)O)O)N=C(N)N)O)O[C@@H]3[C@@H]([C@H]([C@@H]([C@H](O3)CO)O)N)O)NC(=O)[C@H](CCN)O

> <PUBCHEM_CACTVS_TPSA>
376

> <PUBCHEM_MONOISOTOPIC_WEIGHT>
626.32351893

> <PUBCHEM_TOTAL_CHARGE>
0

> <PUBCHEM_HEAVY_ATOM_COUNT>
43

> <PUBCHEM_ATOM_DEF_STEREO_COUNT>
15

> <PUBCHEM_ATOM_UDEF_STEREO_COUNT>
1

> <PUBCHEM_BOND_DEF_STEREO_COUNT>
0

> <PUBCHEM_BOND_UDEF_STEREO_COUNT>
0

> <PUBCHEM_ISOTOPIC_ATOM_COUNT>
0

> <PUBCHEM_COMPONENT_COUNT>
1

> <PUBCHEM_CACTVS_TAUTO_COUNT>
-1

> <PUBCHEM_COORDINATE_TYPE>
1
5
255

> <PUBCHEM_BONDANNOTATIONS>
21  1  6
27  1  6
40  12  6
23  13  5
25  14  5
31  15  5
30  16  6
22  2  3
28  2  6
24  3  5
34  39  5
36  38  5
29  6  6
32  7  5
33  8  6
35  9  6

$$$$
