 
  -OEChem-10192104432D

 33 33  0     1  0  0  0  0  0999 V2000
    5.1350    2.5950    0.0000 O   0  0  0  0  0  0  0  0  0  0  0  0
    2.5369   -1.9050    0.0000 O   0  0  0  0  0  0  0  0  0  0  0  0
    3.4030   -0.4050    0.0000 O   0  0  0  0  0  0  0  0  0  0  0  0
    6.8671    3.5950    0.0000 O   0  0  0  0  0  0  0  0  0  0  0  0
    7.7331    2.0950    0.0000 O   0  0  0  0  0  0  0  0  0  0  0  0
    5.1350   -0.4050    0.0000 N   0  0  0  0  0  0  0  0  0  0  0  0
    6.0010    1.0950    0.0000 C   0  0  0  0  0  0  0  0  0  0  0  0
    5.1350    0.5950    0.0000 C   0  0  0  0  0  0  0  0  0  0  0  0
    6.0010    2.0950    0.0000 C   0  0  1  0  0  0  0  0  0  0  0  0
    4.2690   -1.9050    0.0000 C   0  0  0  0  0  0  0  0  0  0  0  0
    4.2690   -0.9050    0.0000 C   0  0  0  0  0  0  0  0  0  0  0  0
    3.4030   -2.4050    0.0000 C   0  0  0  0  0  0  0  0  0  0  0  0
    3.4030   -3.4050    0.0000 C   0  0  0  0  0  0  0  0  0  0  0  0
    5.1350   -2.4050    0.0000 C   0  0  0  0  0  0  0  0  0  0  0  0
    6.8671    2.5950    0.0000 C   0  0  0  0  0  0  0  0  0  0  0  0
    4.2690   -3.9050    0.0000 C   0  0  0  0  0  0  0  0  0  0  0  0
    5.1350   -3.4050    0.0000 C   0  0  0  0  0  0  0  0  0  0  0  0
    2.5369   -3.9050    0.0000 C   0  0  0  0  0  0  0  0  0  0  0  0
    6.2131    0.5124    0.0000 H   0  0  0  0  0  0  0  0  0  0  0  0
    6.6116    1.2027    0.0000 H   0  0  0  0  0  0  0  0  0  0  0  0
    4.9230    1.1776    0.0000 H   0  0  0  0  0  0  0  0  0  0  0  0
    4.5244    0.4873    0.0000 H   0  0  0  0  0  0  0  0  0  0  0  0
    5.4641    1.7850    0.0000 H   0  0  0  0  0  0  0  0  0  0  0  0
    5.6720   -0.7150    0.0000 H   0  0  0  0  0  0  0  0  0  0  0  0
    5.6720   -2.0950    0.0000 H   0  0  0  0  0  0  0  0  0  0  0  0
    4.2690   -4.5250    0.0000 H   0  0  0  0  0  0  0  0  0  0  0  0
    5.6720   -3.7150    0.0000 H   0  0  0  0  0  0  0  0  0  0  0  0
    2.2269   -3.3681    0.0000 H   0  0  0  0  0  0  0  0  0  0  0  0
    2.0000   -4.2150    0.0000 H   0  0  0  0  0  0  0  0  0  0  0  0
    2.8469   -4.4419    0.0000 H   0  0  0  0  0  0  0  0  0  0  0  0
    5.1350    3.2150    0.0000 H   0  0  0  0  0  0  0  0  0  0  0  0
    2.0000   -2.2150    0.0000 H   0  0  0  0  0  0  0  0  0  0  0  0
    7.4040    3.9050    0.0000 H   0  0  0  0  0  0  0  0  0  0  0  0
  9  1  1  6  0  0  0
  1 31  1  0  0  0  0
  2 12  1  0  0  0  0
  2 32  1  0  0  0  0
  3 11  2  0  0  0  0
  4 15  1  0  0  0  0
  4 33  1  0  0  0  0
  5 15  2  0  0  0  0
  6  8  1  0  0  0  0
  6 11  1  0  0  0  0
  6 24  1  0  0  0  0
  7  8  1  0  0  0  0
  7  9  1  0  0  0  0
  7 19  1  0  0  0  0
  7 20  1  0  0  0  0
  8 21  1  0  0  0  0
  8 22  1  0  0  0  0
  9 15  1  0  0  0  0
  9 23  1  0  0  0  0
 10 11  1  0  0  0  0
 10 12  1  0  0  0  0
 10 14  2  0  0  0  0
 12 13  2  0  0  0  0
 13 16  1  0  0  0  0
 13 18  1  0  0  0  0
 14 17  1  0  0  0  0
 14 25  1  0  0  0  0
 16 17  2  0  0  0  0
 16 26  1  0  0  0  0
 17 27  1  0  0  0  0
 18 28  1  0  0  0  0
 18 29  1  0  0  0  0
 18 30  1  0  0  0  0
M  END
> <PUBCHEM_COMPOUND_CID>
107834436

> <PUBCHEM_COMPOUND_CANONICALIZED>
1

> <PUBCHEM_CACTVS_COMPLEXITY>
307

> <PUBCHEM_CACTVS_HBOND_ACCEPTOR>
5

> <PUBCHEM_CACTVS_HBOND_DONOR>
4

> <PUBCHEM_CACTVS_ROTATABLE_BOND>
5

> <PUBCHEM_CACTVS_SUBSKEYS>
AAADccByOAAAAAAAAAAAAAAAAAAAAAAAAAAwAAAAAAAAAAABAAAAHgAQCAAADBThmAYyDoLAAgCIAiHSGAKCAAAkIAAIiIFMDMgJNjaClROEcUhm9hGJmYe8yGCOAAACAAAIAAAAAAQAABAAAAAAAAAAAA==

> <PUBCHEM_IUPAC_OPENEYE_NAME>
(2S)-2-hydroxy-4-[(2-hydroxy-3-methyl-benzoyl)amino]butanoic acid

> <PUBCHEM_IUPAC_CAS_NAME>
(2S)-2-hydroxy-4-[[(2-hydroxy-3-methylphenyl)-oxomethyl]amino]butanoic acid

> <PUBCHEM_IUPAC_NAME_MARKUP>
(2<I>S</I>)-2-hydroxy-4-[(2-hydroxy-3-methylbenzoyl)amino]butanoic acid

> <PUBCHEM_IUPAC_NAME>
(2S)-2-hydroxy-4-[(2-hydroxy-3-methylbenzoyl)amino]butanoic acid

> <PUBCHEM_IUPAC_SYSTEMATIC_NAME>
(2S)-4-[(3-methyl-2-oxidanyl-phenyl)carbonylamino]-2-oxidanyl-butanoic acid

> <PUBCHEM_IUPAC_TRADITIONAL_NAME>
(2S)-2-hydroxy-4-[(2-hydroxy-3-methyl-benzoyl)amino]butyric acid

> <PUBCHEM_IUPAC_INCHI>
InChI=1S/C12H15NO5/c1-7-3-2-4-8(10(7)15)11(16)13-6-5-9(14)12(17)18/h2-4,9,14-15H,5-6H2,1H3,(H,13,16)(H,17,18)/t9-/m0/s1

> <PUBCHEM_IUPAC_INCHIKEY>
GSJATISZXUHZRQ-VIFPVBQESA-N

> <PUBCHEM_XLOGP3_AA>
1.1

> <PUBCHEM_EXACT_MASS>
253.09502258

> <PUBCHEM_MOLECULAR_FORMULA>
C12H15NO5

> <PUBCHEM_MOLECULAR_WEIGHT>
253.25

> <PUBCHEM_OPENEYE_CAN_SMILES>
CC1=C(C(=CC=C1)C(=O)NCCC(C(=O)O)O)O

> <PUBCHEM_OPENEYE_ISO_SMILES>
CC1=C(C(=CC=C1)C(=O)NCC[C@@H](C(=O)O)O)O

> <PUBCHEM_CACTVS_TPSA>
107

> <PUBCHEM_MONOISOTOPIC_WEIGHT>
253.09502258

> <PUBCHEM_TOTAL_CHARGE>
0

> <PUBCHEM_HEAVY_ATOM_COUNT>
18

> <PUBCHEM_ATOM_DEF_STEREO_COUNT>
1

> <PUBCHEM_ATOM_UDEF_STEREO_COUNT>
0

> <PUBCHEM_BOND_DEF_STEREO_COUNT>
0

> <PUBCHEM_BOND_UDEF_STEREO_COUNT>
0

> <PUBCHEM_ISOTOPIC_ATOM_COUNT>
0

> <PUBCHEM_COMPONENT_COUNT>
1

> <PUBCHEM_CACTVS_TAUTO_COUNT>
-1

> <PUBCHEM_COORDINATE_TYPE>
1
5
255

> <PUBCHEM_BONDANNOTATIONS>
9  1  6
10  12  8
10  14  8
12  13  8
13  16  8
14  17  8
16  17  8

$$$$
