 
  -OEChem-10192103382D

 86 91  0     1  0  0  0  0  0999 V2000
    9.5855   -1.5719    0.0000 O   0  0  0  0  0  0  0  0  0  0  0  0
    7.3414    3.5936    0.0000 O   0  0  0  0  0  0  0  0  0  0  0  0
    9.5396    0.4935    0.0000 O   0  0  0  0  0  0  0  0  0  0  0  0
    8.2811    1.0462    0.0000 O   0  0  0  0  0  0  0  0  0  0  0  0
    6.9195   -3.0511    0.0000 O   0  0  0  0  0  0  0  0  0  0  0  0
    4.3483    3.0131    0.0000 O   0  0  0  0  0  0  0  0  0  0  0  0
    5.1711   -3.0857    0.0000 O   0  0  0  0  0  0  0  0  0  0  0  0
    2.9867    1.9157    0.0000 O   0  0  0  0  0  0  0  0  0  0  0  0
    3.2693   -0.3528    0.0000 O   0  0  0  0  0  0  0  0  0  0  0  0
    3.5880   -1.5727    0.0000 O   0  0  0  0  0  0  0  0  0  0  0  0
   11.0295    1.3768    0.0000 O   0  0  0  0  0  0  0  0  0  0  0  0
   10.0130    1.0262    0.0000 O   0  0  0  0  0  0  0  0  0  0  0  0
    6.9195   -0.0511    0.0000 C   0  0  0  0  0  0  0  0  0  0  0  0
    6.2767    0.7149    0.0000 C   0  0  0  0  0  0  0  0  0  0  0  0
    7.7855   -0.5511    0.0000 C   0  0  0  0  0  0  0  0  0  0  0  0
    6.6187    1.6546    0.0000 C   0  0  0  0  0  0  0  0  0  0  0  0
    8.6795   -0.0164    0.0000 C   0  0  3  0  0  0  0  0  0  0  0  0
    7.6472    1.8197    0.0000 C   0  0  3  0  0  0  0  0  0  0  0  0
    7.7855   -1.5511    0.0000 C   0  0  0  0  0  0  0  0  0  0  0  0
    5.9759    2.4207    0.0000 C   0  0  0  0  0  0  0  0  0  0  0  0
    9.5855   -0.5303    0.0000 C   0  0  3  0  0  0  0  0  0  0  0  0
    8.0110    2.7957    0.0000 C   0  0  3  0  0  0  0  0  0  0  0  0
    6.0535   -0.5511    0.0000 C   0  0  0  0  0  0  0  0  0  0  0  0
    5.2919    0.5413    0.0000 C   0  0  0  0  0  0  0  0  0  0  0  0
    8.6795   -2.0858    0.0000 C   0  0  0  0  0  0  0  0  0  0  0  0
    6.3171    3.4049    0.0000 C   0  0  0  0  0  0  0  0  0  0  0  0
    6.0535   -1.5511    0.0000 C   0  0  0  0  0  0  0  0  0  0  0  0
    4.6491    1.3073    0.0000 C   0  0  0  0  0  0  0  0  0  0  0  0
    6.9195   -2.0511    0.0000 C   0  0  0  0  0  0  0  0  0  0  0  0
    4.9911    2.2470    0.0000 C   0  0  0  0  0  0  0  0  0  0  0  0
   10.4535   -1.0270    0.0000 C   0  0  0  0  0  0  0  0  0  0  0  0
    8.7795    3.4355    0.0000 C   0  0  0  0  0  0  0  0  0  0  0  0
    5.1595   -0.0164    0.0000 C   0  0  0  0  0  0  0  0  0  0  0  0
    4.9508   -0.4429    0.0000 C   0  0  0  0  0  0  0  0  0  0  0  0
    5.1595   -2.0858    0.0000 C   0  0  0  0  0  0  0  0  0  0  0  0
    3.6206    1.1423    0.0000 C   0  0  0  0  0  0  0  0  0  0  0  0
    4.2535   -0.5303    0.0000 C   0  0  0  0  0  0  0  0  0  0  0  0
    3.9264   -0.6317    0.0000 C   0  0  0  0  0  0  0  0  0  0  0  0
    4.2535   -1.5719    0.0000 C   0  0  0  0  0  0  0  0  0  0  0  0
    3.2568    0.1663    0.0000 C   0  0  0  0  0  0  0  0  0  0  0  0
   10.5396    0.5051    0.0000 C   0  0  0  0  0  0  0  0  0  0  0  0
    9.1528    1.5362    0.0000 C   0  0  0  0  0  0  0  0  0  0  0  0
   11.4113    0.0151    0.0000 C   0  0  0  0  0  0  0  0  0  0  0  0
    9.6628    2.3964    0.0000 C   0  0  0  0  0  0  0  0  0  0  0  0
    4.3109   -3.5957    0.0000 C   0  0  0  0  0  0  0  0  0  0  0  0
    2.0000    1.7535    0.0000 C   0  0  0  0  0  0  0  0  0  0  0  0
    2.6236   -1.1164    0.0000 C   0  0  0  0  0  0  0  0  0  0  0  0
    2.6039   -1.7501    0.0000 C   0  0  0  0  0  0  0  0  0  0  0  0
    8.3622    0.5163    0.0000 H   0  0  0  0  0  0  0  0  0  0  0  0
    8.2588    1.9214    0.0000 H   0  0  0  0  0  0  0  0  0  0  0  0
    9.8966   -1.0666    0.0000 H   0  0  0  0  0  0  0  0  0  0  0  0
    8.0662    3.4132    0.0000 H   0  0  0  0  0  0  0  0  0  0  0  0
    8.2749   -2.5556    0.0000 H   0  0  0  0  0  0  0  0  0  0  0  0
    9.0731   -2.5648    0.0000 H   0  0  0  0  0  0  0  0  0  0  0  0
    6.3107    4.0248    0.0000 H   0  0  0  0  0  0  0  0  0  0  0  0
    5.7052    3.5047    0.0000 H   0  0  0  0  0  0  0  0  0  0  0  0
   10.1455   -1.5651    0.0000 H   0  0  0  0  0  0  0  0  0  0  0  0
   10.9916   -1.3349    0.0000 H   0  0  0  0  0  0  0  0  0  0  0  0
   10.7614   -0.4888    0.0000 H   0  0  0  0  0  0  0  0  0  0  0  0
    9.1762    2.9591    0.0000 H   0  0  0  0  0  0  0  0  0  0  0  0
    9.2560    3.8322    0.0000 H   0  0  0  0  0  0  0  0  0  0  0  0
    8.3828    3.9120    0.0000 H   0  0  0  0  0  0  0  0  0  0  0  0
    5.1667    0.6035    0.0000 H   0  0  0  0  0  0  0  0  0  0  0  0
    5.3548   -0.9132    0.0000 H   0  0  0  0  0  0  0  0  0  0  0  0
    3.7177   -1.8840    0.0000 H   0  0  0  0  0  0  0  0  0  0  0  0
    2.6458    0.0609    0.0000 H   0  0  0  0  0  0  0  0  0  0  0  0
    7.4564   -3.3611    0.0000 H   0  0  0  0  0  0  0  0  0  0  0  0
    4.5604    3.5957    0.0000 H   0  0  0  0  0  0  0  0  0  0  0  0
   11.1076   -0.5253    0.0000 H   0  0  0  0  0  0  0  0  0  0  0  0
   11.9518   -0.2886    0.0000 H   0  0  0  0  0  0  0  0  0  0  0  0
   11.7151    0.5556    0.0000 H   0  0  0  0  0  0  0  0  0  0  0  0
   10.1961    2.0802    0.0000 H   0  0  0  0  0  0  0  0  0  0  0  0
    9.9790    2.9297    0.0000 H   0  0  0  0  0  0  0  0  0  0  0  0
    9.1295    2.7126    0.0000 H   0  0  0  0  0  0  0  0  0  0  0  0
    3.9947   -3.0624    0.0000 H   0  0  0  0  0  0  0  0  0  0  0  0
    3.7776   -3.9119    0.0000 H   0  0  0  0  0  0  0  0  0  0  0  0
    4.6271   -4.1290    0.0000 H   0  0  0  0  0  0  0  0  0  0  0  0
    1.8994    2.3653    0.0000 H   0  0  0  0  0  0  0  0  0  0  0  0
    1.3882    1.6529    0.0000 H   0  0  0  0  0  0  0  0  0  0  0  0
    2.1006    1.1417    0.0000 H   0  0  0  0  0  0  0  0  0  0  0  0
    2.1502   -0.7161    0.0000 H   0  0  0  0  0  0  0  0  0  0  0  0
    2.2232   -1.5898    0.0000 H   0  0  0  0  0  0  0  0  0  0  0  0
    3.0970   -1.5168    0.0000 H   0  0  0  0  0  0  0  0  0  0  0  0
    2.4938   -1.1400    0.0000 H   0  0  0  0  0  0  0  0  0  0  0  0
    1.9937   -1.8601    0.0000 H   0  0  0  0  0  0  0  0  0  0  0  0
    2.7139   -2.3603    0.0000 H   0  0  0  0  0  0  0  0  0  0  0  0
  1 21  1  0  0  0  0
  1 25  1  0  0  0  0
  2 22  1  0  0  0  0
  2 26  1  0  0  0  0
  3 17  1  0  0  0  0
  3 41  1  0  0  0  0
  4 18  1  0  0  0  0
  4 42  1  0  0  0  0
  5 29  1  0  0  0  0
  5 67  1  0  0  0  0
  6 30  1  0  0  0  0
  6 68  1  0  0  0  0
  7 35  1  0  0  0  0
  7 45  1  0  0  0  0
  8 36  1  0  0  0  0
  8 46  1  0  0  0  0
  9 37  1  0  0  0  0
  9 47  1  0  0  0  0
 10 38  1  0  0  0  0
 10 48  1  0  0  0  0
 11 41  2  0  0  0  0
 12 42  2  0  0  0  0
 13 14  1  0  0  0  0
 13 15  2  0  0  0  0
 13 23  1  0  0  0  0
 14 16  2  0  0  0  0
 14 24  1  0  0  0  0
 15 17  1  0  0  0  0
 15 19  1  0  0  0  0
 16 18  1  0  0  0  0
 16 20  1  0  0  0  0
 17 21  1  0  0  0  0
 17 49  1  0  0  0  0
 18 22  1  0  0  0  0
 18 50  1  0  0  0  0
 19 25  1  0  0  0  0
 19 29  2  0  0  0  0
 20 26  1  0  0  0  0
 20 30  2  0  0  0  0
 21 31  1  0  0  0  0
 21 51  1  0  0  0  0
 22 32  1  0  0  0  0
 22 52  1  0  0  0  0
 23 27  2  0  0  0  0
 23 33  1  0  0  0  0
 24 28  2  0  0  0  0
 24 34  1  0  0  0  0
 25 53  1  0  0  0  0
 25 54  1  0  0  0  0
 26 55  1  0  0  0  0
 26 56  1  0  0  0  0
 27 29  1  0  0  0  0
 27 35  1  0  0  0  0
 28 30  1  0  0  0  0
 28 36  1  0  0  0  0
 31 57  1  0  0  0  0
 31 58  1  0  0  0  0
 31 59  1  0  0  0  0
 32 60  1  0  0  0  0
 32 61  1  0  0  0  0
 32 62  1  0  0  0  0
 33 37  2  0  0  0  0
 33 63  1  0  0  0  0
 34 38  2  0  0  0  0
 34 64  1  0  0  0  0
 35 39  2  0  0  0  0
 36 40  2  0  0  0  0
 37 39  1  0  0  0  0
 38 40  1  0  0  0  0
 39 65  1  0  0  0  0
 40 66  1  0  0  0  0
 41 43  1  0  0  0  0
 42 44  1  0  0  0  0
 43 69  1  0  0  0  0
 43 70  1  0  0  0  0
 43 71  1  0  0  0  0
 44 72  1  0  0  0  0
 44 73  1  0  0  0  0
 44 74  1  0  0  0  0
 45 75  1  0  0  0  0
 45 76  1  0  0  0  0
 45 77  1  0  0  0  0
 46 78  1  0  0  0  0
 46 79  1  0  0  0  0
 46 80  1  0  0  0  0
 47 81  1  0  0  0  0
 47 82  1  0  0  0  0
 47 83  1  0  0  0  0
 48 84  1  0  0  0  0
 48 85  1  0  0  0  0
 48 86  1  0  0  0  0
M  END
> <PUBCHEM_COMPOUND_CID>
10349429

> <PUBCHEM_COMPOUND_CANONICALIZED>
1

> <PUBCHEM_CACTVS_COMPLEXITY>
1050

> <PUBCHEM_CACTVS_HBOND_ACCEPTOR>
12

> <PUBCHEM_CACTVS_HBOND_DONOR>
2

> <PUBCHEM_CACTVS_ROTATABLE_BOND>
9

> <PUBCHEM_CACTVS_SUBSKEYS>
AAADcfB8PAAAAAAAAAAAAAAAAAAAAAAAAAA0aMGCAAAAAADRVAAAGgAACAAADBSgmAIyDsAABgCIAiDSCAACCAAgIAAAiAAGCIgNJyKGMRqCcCAlwBUKuAfA4PwO4AADCAAYAADAAAYQADAAAAAAAAAAAA==

> <PUBCHEM_IUPAC_OPENEYE_NAME>
[5-(4-acetoxy-10-hydroxy-7,9-dimethoxy-3-methyl-3,4-dihydro-1H-benzo[g]isochromen-5-yl)-10-hydroxy-7,9-dimethoxy-3-methyl-3,4-dihydro-1H-benzo[g]isochromen-4-yl] acetate

> <PUBCHEM_IUPAC_CAS_NAME>
acetic acid [5-(4-acetyloxy-10-hydroxy-7,9-dimethoxy-3-methyl-3,4-dihydro-1H-benzo[g][2]benzopyran-5-yl)-10-hydroxy-7,9-dimethoxy-3-methyl-3,4-dihydro-1H-benzo[g][2]benzopyran-4-yl] ester

> <PUBCHEM_IUPAC_NAME_MARKUP>
[5-(4-acetyloxy-10-hydroxy-7,9-dimethoxy-3-methyl-3,4-dihydro-1<I>H</I>-benzo[g]isochromen-5-yl)-10-hydroxy-7,9-dimethoxy-3-methyl-3,4-dihydro-1<I>H</I>-benzo[g]isochromen-4-yl] acetate

> <PUBCHEM_IUPAC_NAME>
[5-(4-acetyloxy-10-hydroxy-7,9-dimethoxy-3-methyl-3,4-dihydro-1H-benzo[g]isochromen-5-yl)-10-hydroxy-7,9-dimethoxy-3-methyl-3,4-dihydro-1H-benzo[g]isochromen-4-yl] acetate

> <PUBCHEM_IUPAC_SYSTEMATIC_NAME>
[5-(4-acetyloxy-7,9-dimethoxy-3-methyl-10-oxidanyl-3,4-dihydro-1H-benzo[g]isochromen-5-yl)-7,9-dimethoxy-3-methyl-10-oxidanyl-3,4-dihydro-1H-benzo[g]isochromen-4-yl] ethanoate

> <PUBCHEM_IUPAC_TRADITIONAL_NAME>
acetic acid [5-(4-acetoxy-10-hydroxy-7,9-dimethoxy-3-methyl-3,4-dihydro-1H-benz[g]isochromen-5-yl)-10-hydroxy-7,9-dimethoxy-3-methyl-3,4-dihydro-1H-benz[g]isochromen-4-yl] ester

> <PUBCHEM_IUPAC_INCHI>
InChI=1S/C36H38O12/c1-15-35(47-17(3)37)31-23(13-45-15)33(39)27-21(9-19(41-5)11-25(27)43-7)29(31)30-22-10-20(42-6)12-26(44-8)28(22)34(40)24-14-46-16(2)36(32(24)30)48-18(4)38/h9-12,15-16,35-36,39-40H,13-14H2,1-8H3

> <PUBCHEM_IUPAC_INCHIKEY>
PEDZYCDSAWVMRN-UHFFFAOYSA-N

> <PUBCHEM_XLOGP3_AA>
4.4

> <PUBCHEM_EXACT_MASS>
662.23632664

> <PUBCHEM_MOLECULAR_FORMULA>
C36H38O12

> <PUBCHEM_MOLECULAR_WEIGHT>
662.7

> <PUBCHEM_OPENEYE_CAN_SMILES>
CC1C(C2=C(C3=C(C(=CC(=C3)OC)OC)C(=C2CO1)O)C4=C5C(C(OCC5=C(C6=C4C=C(C=C6OC)OC)O)C)OC(=O)C)OC(=O)C

> <PUBCHEM_OPENEYE_ISO_SMILES>
CC1C(C2=C(C3=C(C(=CC(=C3)OC)OC)C(=C2CO1)O)C4=C5C(C(OCC5=C(C6=C4C=C(C=C6OC)OC)O)C)OC(=O)C)OC(=O)C

> <PUBCHEM_CACTVS_TPSA>
148

> <PUBCHEM_MONOISOTOPIC_WEIGHT>
662.23632664

> <PUBCHEM_TOTAL_CHARGE>
0

> <PUBCHEM_HEAVY_ATOM_COUNT>
48

> <PUBCHEM_ATOM_DEF_STEREO_COUNT>
0

> <PUBCHEM_ATOM_UDEF_STEREO_COUNT>
4

> <PUBCHEM_BOND_DEF_STEREO_COUNT>
0

> <PUBCHEM_BOND_UDEF_STEREO_COUNT>
0

> <PUBCHEM_ISOTOPIC_ATOM_COUNT>
0

> <PUBCHEM_COMPONENT_COUNT>
1

> <PUBCHEM_CACTVS_TAUTO_COUNT>
-1

> <PUBCHEM_COORDINATE_TYPE>
1
5
255

> <PUBCHEM_BONDANNOTATIONS>
13  15  8
13  23  8
14  16  8
14  24  8
15  19  8
16  20  8
19  29  8
20  30  8
21  31  3
22  32  3
23  27  8
23  33  8
24  28  8
24  34  8
27  29  8
27  35  8
28  30  8
28  36  8
17  3  3
33  37  8
34  38  8
35  39  8
36  40  8
37  39  8
38  40  8
18  4  3

$$$$
