 
  -OEChem-10192103322D

 33 33  0     1  0  0  0  0  0999 V2000
    7.6962   -4.4330    0.0000 O   0  0  0  0  0  0  0  0  0  0  0  0
    5.4641   -0.5670    0.0000 O   0  0  0  0  0  0  0  0  0  0  0  0
    4.5981   -2.0670    0.0000 O   0  0  0  0  0  0  0  0  0  0  0  0
    3.7320    2.4330    0.0000 O   0  0  0  0  0  0  0  0  0  0  0  0
    2.0000    2.4330    0.0000 O   0  0  0  0  0  0  0  0  0  0  0  0
    7.1962   -3.5670    0.0000 C   0  0  3  0  0  0  0  0  0  0  0  0
    8.1962   -3.5670    0.0000 C   0  0  0  0  0  0  0  0  0  0  0  0
    6.3301   -3.0670    0.0000 C   0  0  0  0  0  0  0  0  0  0  0  0
    6.3301   -2.0670    0.0000 C   0  0  0  0  0  0  0  0  0  0  0  0
    5.4641   -1.5670    0.0000 C   0  0  0  0  0  0  0  0  0  0  0  0
    4.5981   -0.0670    0.0000 C   0  0  0  0  0  0  0  0  0  0  0  0
    4.5981    0.9330    0.0000 C   0  0  0  0  0  0  0  0  0  0  0  0
    7.1962   -1.5670    0.0000 C   0  0  0  0  0  0  0  0  0  0  0  0
    3.7320    1.4330    0.0000 C   0  0  0  0  0  0  0  0  0  0  0  0
    2.8660    2.9330    0.0000 C   0  0  0  0  0  0  0  0  0  0  0  0
    2.8660    3.9330    0.0000 C   0  0  0  0  0  0  0  0  0  0  0  0
    2.0000    4.4330    0.0000 C   0  0  0  0  0  0  0  0  0  0  0  0
    6.7578   -4.0054    0.0000 H   0  0  0  0  0  0  0  0  0  0  0  0
    8.7788   -3.7790    0.0000 H   0  0  0  0  0  0  0  0  0  0  0  0
    8.3038   -2.9564    0.0000 H   0  0  0  0  0  0  0  0  0  0  0  0
    5.7196   -2.9593    0.0000 H   0  0  0  0  0  0  0  0  0  0  0  0
    6.1181   -3.6496    0.0000 H   0  0  0  0  0  0  0  0  0  0  0  0
    5.2087    0.8254    0.0000 H   0  0  0  0  0  0  0  0  0  0  0  0
    4.8101    1.5156    0.0000 H   0  0  0  0  0  0  0  0  0  0  0  0
    3.9875    0.0407    0.0000 H   0  0  0  0  0  0  0  0  0  0  0  0
    4.3860   -0.6496    0.0000 H   0  0  0  0  0  0  0  0  0  0  0  0
    7.7331   -1.8770    0.0000 H   0  0  0  0  0  0  0  0  0  0  0  0
    7.1962   -0.9470    0.0000 H   0  0  0  0  0  0  0  0  0  0  0  0
    3.1215    1.5407    0.0000 H   0  0  0  0  0  0  0  0  0  0  0  0
    3.5200    0.8504    0.0000 H   0  0  0  0  0  0  0  0  0  0  0  0
    3.4030    4.2430    0.0000 H   0  0  0  0  0  0  0  0  0  0  0  0
    2.0000    5.0530    0.0000 H   0  0  0  0  0  0  0  0  0  0  0  0
    1.4631    4.1230    0.0000 H   0  0  0  0  0  0  0  0  0  0  0  0
  1  6  1  0  0  0  0
  1  7  1  0  0  0  0
  2 10  1  0  0  0  0
  2 11  1  0  0  0  0
  3 10  2  0  0  0  0
  4 14  1  0  0  0  0
  4 15  1  0  0  0  0
  5 15  2  0  0  0  0
  6  7  1  0  0  0  0
  6  8  1  0  0  0  0
  6 18  1  0  0  0  0
  7 19  1  0  0  0  0
  7 20  1  0  0  0  0
  8  9  1  0  0  0  0
  8 21  1  0  0  0  0
  8 22  1  0  0  0  0
  9 10  1  0  0  0  0
  9 13  2  0  0  0  0
 11 12  1  0  0  0  0
 11 25  1  0  0  0  0
 11 26  1  0  0  0  0
 12 14  1  0  0  0  0
 12 23  1  0  0  0  0
 12 24  1  0  0  0  0
 13 27  1  0  0  0  0
 13 28  1  0  0  0  0
 14 29  1  0  0  0  0
 14 30  1  0  0  0  0
 15 16  1  0  0  0  0
 16 17  2  0  0  0  0
 16 31  1  0  0  0  0
 17 32  1  0  0  0  0
 17 33  1  0  0  0  0
M  END
> <PUBCHEM_COMPOUND_CID>
88104188

> <PUBCHEM_COMPOUND_CANONICALIZED>
1

> <PUBCHEM_CACTVS_COMPLEXITY>
321

> <PUBCHEM_CACTVS_HBOND_ACCEPTOR>
5

> <PUBCHEM_CACTVS_HBOND_DONOR>
0

> <PUBCHEM_CACTVS_ROTATABLE_BOND>
10

> <PUBCHEM_CACTVS_SUBSKEYS>
AAADceBwOAAAAAAAAAAAAAAAEgAAAAAAAAAAAAAAAAAAAAAAAAAAGgAAAAAADBSggAIACAAABACIAiDSCAAAAAAgAAAIAAEAAEgABBIAIQACAAAFwAAAIIDKJAgAAAAAAAAAAAAAAAAAAAAAAAAAAAAAAA==

> <PUBCHEM_IUPAC_OPENEYE_NAME>
3-prop-2-enoyloxypropyl 2-(oxiran-2-ylmethyl)prop-2-enoate

> <PUBCHEM_IUPAC_CAS_NAME>
2-(2-oxiranylmethyl)-2-propenoic acid 3-(1-oxoprop-2-enoxy)propyl ester

> <PUBCHEM_IUPAC_NAME_MARKUP>
3-prop-2-enoyloxypropyl 2-(oxiran-2-ylmethyl)prop-2-enoate

> <PUBCHEM_IUPAC_NAME>
3-prop-2-enoyloxypropyl 2-(oxiran-2-ylmethyl)prop-2-enoate

> <PUBCHEM_IUPAC_SYSTEMATIC_NAME>
3-prop-2-enoyloxypropyl 2-(oxiran-2-ylmethyl)prop-2-enoate

> <PUBCHEM_IUPAC_TRADITIONAL_NAME>
2-glycidylacrylic acid 3-acryloyloxypropyl ester

> <PUBCHEM_IUPAC_INCHI>
InChI=1S/C12H16O5/c1-3-11(13)15-5-4-6-16-12(14)9(2)7-10-8-17-10/h3,10H,1-2,4-8H2

> <PUBCHEM_IUPAC_INCHIKEY>
UIRDMLFUBGYGHG-UHFFFAOYSA-N

> <PUBCHEM_XLOGP3_AA>
1.5

> <PUBCHEM_EXACT_MASS>
240.09977361

> <PUBCHEM_MOLECULAR_FORMULA>
C12H16O5

> <PUBCHEM_MOLECULAR_WEIGHT>
240.25

> <PUBCHEM_OPENEYE_CAN_SMILES>
C=CC(=O)OCCCOC(=O)C(=C)CC1CO1

> <PUBCHEM_OPENEYE_ISO_SMILES>
C=CC(=O)OCCCOC(=O)C(=C)CC1CO1

> <PUBCHEM_CACTVS_TPSA>
65.1

> <PUBCHEM_MONOISOTOPIC_WEIGHT>
240.09977361

> <PUBCHEM_TOTAL_CHARGE>
0

> <PUBCHEM_HEAVY_ATOM_COUNT>
17

> <PUBCHEM_ATOM_DEF_STEREO_COUNT>
0

> <PUBCHEM_ATOM_UDEF_STEREO_COUNT>
1

> <PUBCHEM_BOND_DEF_STEREO_COUNT>
0

> <PUBCHEM_BOND_UDEF_STEREO_COUNT>
0

> <PUBCHEM_ISOTOPIC_ATOM_COUNT>
0

> <PUBCHEM_COMPONENT_COUNT>
1

> <PUBCHEM_CACTVS_TAUTO_COUNT>
-1

> <PUBCHEM_COORDINATE_TYPE>
1
5
255

> <PUBCHEM_BONDANNOTATIONS>
6  8  3

$$$$
