 
  -OEChem-10192104342D

 50 51  0     1  0  0  0  0  0999 V2000
    4.2690   -1.7500    0.0000 P   0  0  3  0  0  0  0  0  0  0  0  0
    3.4030   -0.2500    0.0000 P   0  0  0  0  0  0  0  0  0  0  0  0
    3.2690   -1.7500    0.0000 O   0  0  0  0  0  0  0  0  0  0  0  0
    5.2690   -1.7500    0.0000 O   0  0  0  0  0  0  0  0  0  0  0  0
    2.5369    0.2500    0.0000 O   0  0  0  0  0  0  0  0  0  0  0  0
    2.9030   -1.1160    0.0000 O   0  0  0  0  0  0  0  0  0  0  0  0
    3.9030    0.6160    0.0000 O   0  0  0  0  0  0  0  0  0  0  0  0
    4.2690   -0.7500    0.0000 C   0  0  3  0  0  0  0  0  0  0  0  0
    5.1350   -0.2500    0.0000 C   0  0  0  0  0  0  0  0  0  0  0  0
    4.2690   -2.7500    0.0000 C   0  0  0  0  0  0  0  0  0  0  0  0
    5.1350   -3.2500    0.0000 C   0  0  0  0  0  0  0  0  0  0  0  0
    5.1350    0.7500    0.0000 C   0  0  0  0  0  0  0  0  0  0  0  0
    5.1350   -4.2500    0.0000 C   0  0  0  0  0  0  0  0  0  0  0  0
    6.0010    1.2500    0.0000 C   0  0  0  0  0  0  0  0  0  0  0  0
    4.2690    1.2500    0.0000 C   0  0  0  0  0  0  0  0  0  0  0  0
    6.0010    2.2500    0.0000 C   0  0  0  0  0  0  0  0  0  0  0  0
    4.2690    2.2500    0.0000 C   0  0  0  0  0  0  0  0  0  0  0  0
    5.1350    2.7500    0.0000 C   0  0  0  0  0  0  0  0  0  0  0  0
    6.0010   -4.7500    0.0000 C   0  0  0  0  0  0  0  0  0  0  0  0
    5.1350    3.7500    0.0000 C   0  0  0  0  0  0  0  0  0  0  0  0
    6.0010   -5.7500    0.0000 C   0  0  0  0  0  0  0  0  0  0  0  0
    4.2690    4.2500    0.0000 C   0  0  0  0  0  0  0  0  0  0  0  0
    6.0010    4.2500    0.0000 C   0  0  0  0  0  0  0  0  0  0  0  0
    4.2690    5.2500    0.0000 C   0  0  0  0  0  0  0  0  0  0  0  0
    6.0010    5.2500    0.0000 C   0  0  0  0  0  0  0  0  0  0  0  0
    5.1350    5.7500    0.0000 C   0  0  0  0  0  0  0  0  0  0  0  0
    4.2690   -0.1300    0.0000 H   0  0  0  0  0  0  0  0  0  0  0  0
    5.3471   -0.8326    0.0000 H   0  0  0  0  0  0  0  0  0  0  0  0
    5.7456   -0.1423    0.0000 H   0  0  0  0  0  0  0  0  0  0  0  0
    3.6584   -2.6423    0.0000 H   0  0  0  0  0  0  0  0  0  0  0  0
    4.0569   -3.3326    0.0000 H   0  0  0  0  0  0  0  0  0  0  0  0
    5.7456   -3.3577    0.0000 H   0  0  0  0  0  0  0  0  0  0  0  0
    5.3471   -2.6674    0.0000 H   0  0  0  0  0  0  0  0  0  0  0  0
    4.5244   -4.1423    0.0000 H   0  0  0  0  0  0  0  0  0  0  0  0
    4.9230   -4.8326    0.0000 H   0  0  0  0  0  0  0  0  0  0  0  0
    2.9590   -2.2869    0.0000 H   0  0  0  0  0  0  0  0  0  0  0  0
    6.5380    0.9400    0.0000 H   0  0  0  0  0  0  0  0  0  0  0  0
    3.7320    0.9400    0.0000 H   0  0  0  0  0  0  0  0  0  0  0  0
    2.0000   -0.0600    0.0000 H   0  0  0  0  0  0  0  0  0  0  0  0
    2.2830   -1.1160    0.0000 H   0  0  0  0  0  0  0  0  0  0  0  0
    6.5380    2.5600    0.0000 H   0  0  0  0  0  0  0  0  0  0  0  0
    3.7320    2.5600    0.0000 H   0  0  0  0  0  0  0  0  0  0  0  0
    6.5380   -4.4400    0.0000 H   0  0  0  0  0  0  0  0  0  0  0  0
    5.4641   -6.0600    0.0000 H   0  0  0  0  0  0  0  0  0  0  0  0
    6.5380   -6.0600    0.0000 H   0  0  0  0  0  0  0  0  0  0  0  0
    3.7320    3.9400    0.0000 H   0  0  0  0  0  0  0  0  0  0  0  0
    6.5380    3.9400    0.0000 H   0  0  0  0  0  0  0  0  0  0  0  0
    3.7320    5.5600    0.0000 H   0  0  0  0  0  0  0  0  0  0  0  0
    6.5380    5.5600    0.0000 H   0  0  0  0  0  0  0  0  0  0  0  0
    5.1350    6.3700    0.0000 H   0  0  0  0  0  0  0  0  0  0  0  0
  1  3  1  0  0  0  0
  1  4  2  0  0  0  0
  1  8  1  0  0  0  0
  1 10  1  0  0  0  0
  2  5  1  0  0  0  0
  2  6  1  0  0  0  0
  2  7  2  0  0  0  0
  2  8  1  0  0  0  0
  3 36  1  0  0  0  0
  5 39  1  0  0  0  0
  6 40  1  0  0  0  0
  8  9  1  0  0  0  0
  8 27  1  0  0  0  0
  9 12  1  0  0  0  0
  9 28  1  0  0  0  0
  9 29  1  0  0  0  0
 10 11  1  0  0  0  0
 10 30  1  0  0  0  0
 10 31  1  0  0  0  0
 11 13  1  0  0  0  0
 11 32  1  0  0  0  0
 11 33  1  0  0  0  0
 12 14  2  0  0  0  0
 12 15  1  0  0  0  0
 13 19  1  0  0  0  0
 13 34  1  0  0  0  0
 13 35  1  0  0  0  0
 14 16  1  0  0  0  0
 14 37  1  0  0  0  0
 15 17  2  0  0  0  0
 15 38  1  0  0  0  0
 16 18  2  0  0  0  0
 16 41  1  0  0  0  0
 17 18  1  0  0  0  0
 17 42  1  0  0  0  0
 18 20  1  0  0  0  0
 19 21  2  0  0  0  0
 19 43  1  0  0  0  0
 20 22  2  0  0  0  0
 20 23  1  0  0  0  0
 21 44  1  0  0  0  0
 21 45  1  0  0  0  0
 22 24  1  0  0  0  0
 22 46  1  0  0  0  0
 23 25  2  0  0  0  0
 23 47  1  0  0  0  0
 24 26  2  0  0  0  0
 24 48  1  0  0  0  0
 25 26  1  0  0  0  0
 25 49  1  0  0  0  0
 26 50  1  0  0  0  0
M  END
> <PUBCHEM_COMPOUND_CID>
21054127

> <PUBCHEM_COMPOUND_CANONICALIZED>
1

> <PUBCHEM_CACTVS_COMPLEXITY>
530

> <PUBCHEM_CACTVS_HBOND_ACCEPTOR>
5

> <PUBCHEM_CACTVS_HBOND_DONOR>
3

> <PUBCHEM_CACTVS_ROTATABLE_BOND>
9

> <PUBCHEM_CACTVS_SUBSKEYS>
AAADceB4OAMAAAAAAAAAAAAAAAAAAAAAAAAwYAAAAAAAAAABQAAAGAgACCAADACIGAAwAIAAADCAQiBCAIACAAAgAAAIiAAAAIgIICKAERCAIAAggAAIiAcAgMAOwAAAAAAAAACAAAAAAAAAAAAAAAAAAA==

> <PUBCHEM_IUPAC_OPENEYE_NAME>
[1-[hydroxy(pent-4-enyl)phosphoryl]-2-(4-phenylphenyl)ethyl]phosphonic acid

> <PUBCHEM_IUPAC_CAS_NAME>
[1-[hydroxy(pent-4-enyl)phosphoryl]-2-(4-phenylphenyl)ethyl]phosphonic acid

> <PUBCHEM_IUPAC_NAME_MARKUP>
[1-[hydroxy(pent-4-enyl)phosphoryl]-2-(4-phenylphenyl)ethyl]phosphonic acid

> <PUBCHEM_IUPAC_NAME>
[1-[hydroxy(pent-4-enyl)phosphoryl]-2-(4-phenylphenyl)ethyl]phosphonic acid

> <PUBCHEM_IUPAC_SYSTEMATIC_NAME>
[1-[oxidanyl(pent-4-enyl)phosphoryl]-2-(4-phenylphenyl)ethyl]phosphonic acid

> <PUBCHEM_IUPAC_TRADITIONAL_NAME>
[1-[hydroxy(pent-4-enyl)phosphoryl]-2-(4-phenylphenyl)ethyl]phosphonic acid

> <PUBCHEM_IUPAC_INCHI>
InChI=1S/C19H24O5P2/c1-2-3-7-14-25(20,21)19(26(22,23)24)15-16-10-12-18(13-11-16)17-8-5-4-6-9-17/h2,4-6,8-13,19H,1,3,7,14-15H2,(H,20,21)(H2,22,23,24)

> <PUBCHEM_IUPAC_INCHIKEY>
CMCQTNUDJLWNSF-UHFFFAOYSA-N

> <PUBCHEM_XLOGP3_AA>
2.3

> <PUBCHEM_EXACT_MASS>
394.10989786

> <PUBCHEM_MOLECULAR_FORMULA>
C19H24O5P2

> <PUBCHEM_MOLECULAR_WEIGHT>
394.3

> <PUBCHEM_OPENEYE_CAN_SMILES>
C=CCCCP(=O)(C(CC1=CC=C(C=C1)C2=CC=CC=C2)P(=O)(O)O)O

> <PUBCHEM_OPENEYE_ISO_SMILES>
C=CCCCP(=O)(C(CC1=CC=C(C=C1)C2=CC=CC=C2)P(=O)(O)O)O

> <PUBCHEM_CACTVS_TPSA>
94.8

> <PUBCHEM_MONOISOTOPIC_WEIGHT>
394.10989786

> <PUBCHEM_TOTAL_CHARGE>
0

> <PUBCHEM_HEAVY_ATOM_COUNT>
26

> <PUBCHEM_ATOM_DEF_STEREO_COUNT>
0

> <PUBCHEM_ATOM_UDEF_STEREO_COUNT>
1

> <PUBCHEM_BOND_DEF_STEREO_COUNT>
0

> <PUBCHEM_BOND_UDEF_STEREO_COUNT>
0

> <PUBCHEM_ISOTOPIC_ATOM_COUNT>
0

> <PUBCHEM_COMPONENT_COUNT>
1

> <PUBCHEM_CACTVS_TAUTO_COUNT>
-1

> <PUBCHEM_COORDINATE_TYPE>
1
5
255

> <PUBCHEM_BONDANNOTATIONS>
12  14  8
12  15  8
14  16  8
15  17  8
16  18  8
17  18  8
20  22  8
20  23  8
22  24  8
23  25  8
24  26  8
25  26  8
8  9  3

$$$$
