 
  -OEChem-10192103302D

 55 57  0     1  0  0  0  0  0999 V2000
    6.8671   -1.3450    0.0000 O   0  0  0  0  0  0  0  0  0  0  0  0
    6.0010    1.1550    0.0000 O   0  0  0  0  0  0  0  0  0  0  0  0
    5.1350   -1.3450    0.0000 O   0  0  0  0  0  0  0  0  0  0  0  0
    8.5991   -0.3450    0.0000 O   0  0  0  0  0  0  0  0  0  0  0  0
    6.8671   -3.3450    0.0000 O   0  0  0  0  0  0  0  0  0  0  0  0
    5.1350   -4.3450    0.0000 O   0  0  0  0  0  0  0  0  0  0  0  0
    6.8671    2.6550    0.0000 O   0  0  0  0  0  0  0  0  0  0  0  0
    3.4030   -3.3450    0.0000 O   0  0  0  0  0  0  0  0  0  0  0  0
    4.2690    0.1550    0.0000 O   0  0  0  0  0  0  0  0  0  0  0  0
    2.5369   -1.8450    0.0000 O   0  0  0  0  0  0  0  0  0  0  0  0
    8.5991    1.6550    0.0000 N   0  0  0  0  0  0  0  0  0  0  0  0
    7.7331    3.1550    0.0000 N   0  0  0  0  0  0  0  0  0  0  0  0
    6.8671   -0.3450    0.0000 C   0  0  1  0  0  0  0  0  0  0  0  0
    7.7331    0.1550    0.0000 C   0  0  1  0  0  0  0  0  0  0  0  0
    7.7331    1.1550    0.0000 C   0  0  2  0  0  0  0  0  0  0  0  0
    6.0010    0.1550    0.0000 C   0  0  1  0  0  0  0  0  0  0  0  0
    6.0010   -1.8450    0.0000 C   0  0  1  0  0  0  0  0  0  0  0  0
    6.0010   -2.8450    0.0000 C   0  0  1  0  0  0  0  0  0  0  0  0
    5.1350   -3.3450    0.0000 C   0  0  2  0  0  0  0  0  0  0  0  0
    6.8671    1.6550    0.0000 C   0  0  3  0  0  0  0  0  0  0  0  0
    4.2690   -2.8450    0.0000 C   0  0  1  0  0  0  0  0  0  0  0  0
    4.2690   -1.8450    0.0000 C   0  0  1  0  0  0  0  0  0  0  0  0
    5.1350   -0.3450    0.0000 C   0  0  0  0  0  0  0  0  0  0  0  0
    3.4030   -1.3450    0.0000 C   0  0  0  0  0  0  0  0  0  0  0  0
    8.5991    2.6550    0.0000 C   0  0  0  0  0  0  0  0  0  0  0  0
    9.4651    3.1550    0.0000 C   0  0  0  0  0  0  0  0  0  0  0  0
    9.4651    4.1550    0.0000 C   0  0  0  0  0  0  0  0  0  0  0  0
    7.7331    4.1550    0.0000 C   0  0  0  0  0  0  0  0  0  0  0  0
    8.5991    4.6550    0.0000 C   0  0  0  0  0  0  0  0  0  0  0  0
    7.4040   -0.6550    0.0000 H   0  0  0  0  0  0  0  0  0  0  0  0
    8.2700    0.4650    0.0000 H   0  0  0  0  0  0  0  0  0  0  0  0
    7.7331    1.7750    0.0000 H   0  0  0  0  0  0  0  0  0  0  0  0
    5.4641    0.4650    0.0000 H   0  0  0  0  0  0  0  0  0  0  0  0
    6.0010   -1.2250    0.0000 H   0  0  0  0  0  0  0  0  0  0  0  0
    6.0010   -3.4650    0.0000 H   0  0  0  0  0  0  0  0  0  0  0  0
    4.5981   -3.6550    0.0000 H   0  0  0  0  0  0  0  0  0  0  0  0
    7.4040    1.9650    0.0000 H   0  0  0  0  0  0  0  0  0  0  0  0
    4.2690   -3.4650    0.0000 H   0  0  0  0  0  0  0  0  0  0  0  0
    4.2690   -1.2250    0.0000 H   0  0  0  0  0  0  0  0  0  0  0  0
    4.7365   -0.8199    0.0000 H   0  0  0  0  0  0  0  0  0  0  0  0
    5.5335   -0.8199    0.0000 H   0  0  0  0  0  0  0  0  0  0  0  0
    9.1360    1.3450    0.0000 H   0  0  0  0  0  0  0  0  0  0  0  0
    3.8015   -0.8701    0.0000 H   0  0  0  0  0  0  0  0  0  0  0  0
    3.0044   -0.8701    0.0000 H   0  0  0  0  0  0  0  0  0  0  0  0
    8.5991   -0.9650    0.0000 H   0  0  0  0  0  0  0  0  0  0  0  0
    6.8671   -3.9650    0.0000 H   0  0  0  0  0  0  0  0  0  0  0  0
    4.5981   -4.6550    0.0000 H   0  0  0  0  0  0  0  0  0  0  0  0
    6.3301    2.9650    0.0000 H   0  0  0  0  0  0  0  0  0  0  0  0
    3.4030   -3.9650    0.0000 H   0  0  0  0  0  0  0  0  0  0  0  0
    4.2690    0.7750    0.0000 H   0  0  0  0  0  0  0  0  0  0  0  0
    2.0000   -1.5350    0.0000 H   0  0  0  0  0  0  0  0  0  0  0  0
   10.0021    2.8450    0.0000 H   0  0  0  0  0  0  0  0  0  0  0  0
   10.0021    4.4650    0.0000 H   0  0  0  0  0  0  0  0  0  0  0  0
    7.1962    4.4650    0.0000 H   0  0  0  0  0  0  0  0  0  0  0  0
    8.5991    5.2750    0.0000 H   0  0  0  0  0  0  0  0  0  0  0  0
 13  1  1  6  0  0  0
 17  1  1  6  0  0  0
  2 16  1  0  0  0  0
  2 20  1  0  0  0  0
  3 17  1  0  0  0  0
  3 22  1  0  0  0  0
 14  4  1  1  0  0  0
  4 45  1  0  0  0  0
 18  5  1  6  0  0  0
  5 46  1  0  0  0  0
 19  6  1  1  0  0  0
  6 47  1  0  0  0  0
  7 20  1  0  0  0  0
  7 48  1  0  0  0  0
 21  8  1  6  0  0  0
  8 49  1  0  0  0  0
  9 23  1  0  0  0  0
  9 50  1  0  0  0  0
 10 24  1  0  0  0  0
 10 51  1  0  0  0  0
 15 11  1  6  0  0  0
 11 25  1  0  0  0  0
 11 42  1  0  0  0  0
 12 25  1  0  0  0  0
 12 28  2  0  0  0  0
 13 14  1  0  0  0  0
 13 16  1  0  0  0  0
 13 30  1  0  0  0  0
 14 15  1  0  0  0  0
 14 31  1  0  0  0  0
 15 20  1  0  0  0  0
 15 32  1  0  0  0  0
 16 23  1  1  0  0  0
 16 33  1  0  0  0  0
 17 18  1  0  0  0  0
 17 34  1  0  0  0  0
 18 19  1  0  0  0  0
 18 35  1  0  0  0  0
 19 21  1  0  0  0  0
 19 36  1  0  0  0  0
 20 37  1  0  0  0  0
 21 22  1  0  0  0  0
 21 38  1  0  0  0  0
 22 24  1  1  0  0  0
 22 39  1  0  0  0  0
 23 40  1  0  0  0  0
 23 41  1  0  0  0  0
 24 43  1  0  0  0  0
 24 44  1  0  0  0  0
 25 26  2  0  0  0  0
 26 27  1  0  0  0  0
 26 52  1  0  0  0  0
 27 29  2  0  0  0  0
 27 53  1  0  0  0  0
 28 29  1  0  0  0  0
 28 54  1  0  0  0  0
 29 55  1  0  0  0  0
M  END
> <PUBCHEM_COMPOUND_CID>
102382586

> <PUBCHEM_COMPOUND_CANONICALIZED>
1

> <PUBCHEM_CACTVS_COMPLEXITY>
517

> <PUBCHEM_CACTVS_HBOND_ACCEPTOR>
12

> <PUBCHEM_CACTVS_HBOND_DONOR>
8

> <PUBCHEM_CACTVS_ROTATABLE_BOND>
6

> <PUBCHEM_CACTVS_SUBSKEYS>
AAADceB7PAAAAAAAAAAAAAAAAAAAAAAAAAAsSJAAAAAAAAABgAAAHgAQCAAACDzxkgc9uJLIFgCgADJnZACCgCkxAiAJ2KA4ZJibMOLAmZGnYAhvkALfyCfwcA8AAAAAAAAAAAAAAAAAAAAAAAAAAAAAAA==

> <PUBCHEM_IUPAC_OPENEYE_NAME>
(2R,3R,4S,5S,6R)-2-[(2R,3S,4R,5R)-4,6-dihydroxy-2-(hydroxymethyl)-5-(2-pyridylamino)tetrahydropyran-3-yl]oxy-6-(hydroxymethyl)tetrahydropyran-3,4,5-triol

> <PUBCHEM_IUPAC_CAS_NAME>
(2R,3R,4S,5S,6R)-2-[[(2R,3S,4R,5R)-4,6-dihydroxy-2-(hydroxymethyl)-5-(2-pyridinylamino)-3-oxanyl]oxy]-6-(hydroxymethyl)oxane-3,4,5-triol

> <PUBCHEM_IUPAC_NAME_MARKUP>
(2<I>R</I>,3<I>R</I>,4<I>S</I>,5<I>S</I>,6<I>R</I>)-2-[(2<I>R</I>,3<I>S</I>,4<I>R</I>,5<I>R</I>)-4,6-dihydroxy-2-(hydroxymethyl)-5-(pyridin-2-ylamino)oxan-3-yl]oxy-6-(hydroxymethyl)oxane-3,4,5-triol

> <PUBCHEM_IUPAC_NAME>
(2R,3R,4S,5S,6R)-2-[(2R,3S,4R,5R)-4,6-dihydroxy-2-(hydroxymethyl)-5-(pyridin-2-ylamino)oxan-3-yl]oxy-6-(hydroxymethyl)oxane-3,4,5-triol

> <PUBCHEM_IUPAC_SYSTEMATIC_NAME>
(2R,3S,4S,5R,6R)-2-(hydroxymethyl)-6-[(2R,3S,4R,5R)-2-(hydroxymethyl)-4,6-bis(oxidanyl)-5-(pyridin-2-ylamino)oxan-3-yl]oxy-oxane-3,4,5-triol

> <PUBCHEM_IUPAC_TRADITIONAL_NAME>
(2R,3R,4S,5S,6R)-2-[(2R,3S,4R,5R)-4,6-dihydroxy-2-methylol-5-(2-pyridylamino)tetrahydropyran-3-yl]oxy-6-methylol-tetrahydropyran-3,4,5-triol

> <PUBCHEM_IUPAC_INCHI>
InChI=1S/C17H26N2O10/c20-5-7-11(22)13(24)14(25)17(28-7)29-15-8(6-21)27-16(26)10(12(15)23)19-9-3-1-2-4-18-9/h1-4,7-8,10-17,20-26H,5-6H2,(H,18,19)/t7-,8-,10-,11-,12-,13+,14-,15-,16?,17-/m1/s1

> <PUBCHEM_IUPAC_INCHIKEY>
AWINTIQKNJOQHT-BRAUGMFPSA-N

> <PUBCHEM_XLOGP3_AA>
-3.1

> <PUBCHEM_EXACT_MASS>
418.15874503

> <PUBCHEM_MOLECULAR_FORMULA>
C17H26N2O10

> <PUBCHEM_MOLECULAR_WEIGHT>
418.4

> <PUBCHEM_OPENEYE_CAN_SMILES>
C1=CC=NC(=C1)NC2C(C(C(OC2O)CO)OC3C(C(C(C(O3)CO)O)O)O)O

> <PUBCHEM_OPENEYE_ISO_SMILES>
C1=CC=NC(=C1)N[C@@H]2[C@H]([C@@H]([C@H](OC2O)CO)O[C@@H]3[C@@H]([C@H]([C@@H]([C@H](O3)CO)O)O)O)O

> <PUBCHEM_CACTVS_TPSA>
194

> <PUBCHEM_MONOISOTOPIC_WEIGHT>
418.15874503

> <PUBCHEM_TOTAL_CHARGE>
0

> <PUBCHEM_HEAVY_ATOM_COUNT>
29

> <PUBCHEM_ATOM_DEF_STEREO_COUNT>
9

> <PUBCHEM_ATOM_UDEF_STEREO_COUNT>
1

> <PUBCHEM_BOND_DEF_STEREO_COUNT>
0

> <PUBCHEM_BOND_UDEF_STEREO_COUNT>
0

> <PUBCHEM_ISOTOPIC_ATOM_COUNT>
0

> <PUBCHEM_COMPONENT_COUNT>
1

> <PUBCHEM_CACTVS_TAUTO_COUNT>
-1

> <PUBCHEM_COORDINATE_TYPE>
1
5
255

> <PUBCHEM_BONDANNOTATIONS>
13  1  6
17  1  6
15  11  6
12  25  8
12  28  8
16  23  5
22  24  5
25  26  8
26  27  8
27  29  8
28  29  8
14  4  5
18  5  6
19  6  5
20  7  3
21  8  6

$$$$
