 
  -OEChem-10192104422D

 80 81  0     1  0  0  0  0  0999 V2000
    7.1030   -1.8429    0.0000 O   0  0  0  0  0  0  0  0  0  0  0  0
    6.0010   -2.6436    0.0000 O   0  0  0  0  0  0  0  0  0  0  0  0
    8.7087    3.0989    0.0000 O   0  0  0  0  0  0  0  0  0  0  0  0
    9.4323    5.9536    0.0000 O   0  0  0  0  0  0  0  0  0  0  0  0
   10.2835   -0.1446    0.0000 O   0  0  0  0  0  0  0  0  0  0  0  0
    8.5663    4.4536    0.0000 O   0  0  0  0  0  0  0  0  0  0  0  0
    2.5369   -3.6436    0.0000 O   0  0  0  0  0  0  0  0  0  0  0  0
    5.1350   -1.1436    0.0000 N   0  0  0  0  0  0  0  0  0  0  0  0
   10.4029    3.4590    0.0000 N   0  0  0  0  0  0  0  0  0  0  0  0
    7.6382   -0.1956    0.0000 N   0  0  0  0  0  0  0  0  0  0  0  0
    9.1245    1.1426    0.0000 N   0  0  0  0  0  0  0  0  0  0  0  0
    4.2690   -3.6436    0.0000 N   0  0  0  0  0  0  0  0  0  0  0  0
    2.5369   -5.6436    0.0000 N   0  0  0  0  0  0  0  0  0  0  0  0
    5.9440   -0.5558    0.0000 C   0  0  1  0  0  0  0  0  0  0  0  0
    5.6350    0.3953    0.0000 C   0  0  0  0  0  0  0  0  0  0  0  0
    4.6350    0.3953    0.0000 C   0  0  0  0  0  0  0  0  0  0  0  0
    4.3260   -0.5558    0.0000 C   0  0  0  0  0  0  0  0  0  0  0  0
   10.2984    4.4536    0.0000 C   0  0  1  0  0  0  0  0  0  0  0  0
   11.2119    4.8603    0.0000 C   0  0  0  0  0  0  0  0  0  0  0  0
   11.8810    4.1171    0.0000 C   0  0  0  0  0  0  0  0  0  0  0  0
    6.8951   -0.8648    0.0000 C   0  0  0  0  0  0  0  0  0  0  0  0
   11.3810    3.2511    0.0000 C   0  0  0  0  0  0  0  0  0  0  0  0
    8.5893   -0.5047    0.0000 C   0  0  1  0  0  0  0  0  0  0  0  0
    5.1350   -2.1436    0.0000 C   0  0  0  0  0  0  0  0  0  0  0  0
    8.7972   -1.4828    0.0000 C   0  0  0  0  0  0  0  0  0  0  0  0
    9.6598    2.7899    0.0000 C   0  0  0  0  0  0  0  0  0  0  0  0
    9.8677    1.8118    0.0000 C   0  0  2  0  0  0  0  0  0  0  0  0
    4.2690   -2.6436    0.0000 C   0  0  2  0  0  0  0  0  0  0  0  0
    9.7482   -1.7918    0.0000 C   0  0  0  0  0  0  0  0  0  0  0  0
    9.3324    0.1645    0.0000 C   0  0  0  0  0  0  0  0  0  0  0  0
    9.4323    4.9536    0.0000 C   0  0  0  0  0  0  0  0  0  0  0  0
   10.8187    1.5027    0.0000 C   0  0  0  0  0  0  0  0  0  0  0  0
    3.4030   -2.1436    0.0000 C   0  0  0  0  0  0  0  0  0  0  0  0
    9.9562   -2.7700    0.0000 C   0  0  0  0  0  0  0  0  0  0  0  0
   10.4914   -1.1227    0.0000 C   0  0  0  0  0  0  0  0  0  0  0  0
    3.4030   -4.1436    0.0000 C   0  0  0  0  0  0  0  0  0  0  0  0
    3.4030   -5.1436    0.0000 C   0  0  2  0  0  0  0  0  0  0  0  0
    4.2690   -5.6436    0.0000 C   0  0  0  0  0  0  0  0  0  0  0  0
    6.0410   -1.1681    0.0000 H   0  0  0  0  0  0  0  0  0  0  0  0
    6.2415    0.5242    0.0000 H   0  0  0  0  0  0  0  0  0  0  0  0
    5.5702    1.0119    0.0000 H   0  0  0  0  0  0  0  0  0  0  0  0
    4.6998    1.0119    0.0000 H   0  0  0  0  0  0  0  0  0  0  0  0
    4.0286    0.5242    0.0000 H   0  0  0  0  0  0  0  0  0  0  0  0
    3.7596   -0.3036    0.0000 H   0  0  0  0  0  0  0  0  0  0  0  0
    4.0160   -1.0927    0.0000 H   0  0  0  0  0  0  0  0  0  0  0  0
    9.7784    4.1159    0.0000 H   0  0  0  0  0  0  0  0  0  0  0  0
   11.7135    5.2247    0.0000 H   0  0  0  0  0  0  0  0  0  0  0  0
   10.9019    5.3972    0.0000 H   0  0  0  0  0  0  0  0  0  0  0  0
   12.3826    3.7527    0.0000 H   0  0  0  0  0  0  0  0  0  0  0  0
   12.2959    4.5779    0.0000 H   0  0  0  0  0  0  0  0  0  0  0  0
   11.1895    2.6615    0.0000 H   0  0  0  0  0  0  0  0  0  0  0  0
   11.9474    2.9989    0.0000 H   0  0  0  0  0  0  0  0  0  0  0  0
    8.4604    0.1018    0.0000 H   0  0  0  0  0  0  0  0  0  0  0  0
    7.5093    0.4108    0.0000 H   0  0  0  0  0  0  0  0  0  0  0  0
    8.1776   -1.5044    0.0000 H   0  0  0  0  0  0  0  0  0  0  0  0
    8.7109   -2.0968    0.0000 H   0  0  0  0  0  0  0  0  0  0  0  0
    9.2780    2.0033    0.0000 H   0  0  0  0  0  0  0  0  0  0  0  0
    4.8059   -2.9536    0.0000 H   0  0  0  0  0  0  0  0  0  0  0  0
   10.3379   -1.9834    0.0000 H   0  0  0  0  0  0  0  0  0  0  0  0
    8.5349    1.3342    0.0000 H   0  0  0  0  0  0  0  0  0  0  0  0
   10.6271    0.9131    0.0000 H   0  0  0  0  0  0  0  0  0  0  0  0
   11.4084    1.3111    0.0000 H   0  0  0  0  0  0  0  0  0  0  0  0
   11.0103    2.0924    0.0000 H   0  0  0  0  0  0  0  0  0  0  0  0
    3.7130   -1.6066    0.0000 H   0  0  0  0  0  0  0  0  0  0  0  0
    2.8660   -1.8336    0.0000 H   0  0  0  0  0  0  0  0  0  0  0  0
    3.0930   -2.6805    0.0000 H   0  0  0  0  0  0  0  0  0  0  0  0
    4.8059   -3.9536    0.0000 H   0  0  0  0  0  0  0  0  0  0  0  0
    9.3497   -2.8989    0.0000 H   0  0  0  0  0  0  0  0  0  0  0  0
   10.0851   -3.3764    0.0000 H   0  0  0  0  0  0  0  0  0  0  0  0
   10.5626   -2.6411    0.0000 H   0  0  0  0  0  0  0  0  0  0  0  0
   10.9063   -1.5834    0.0000 H   0  0  0  0  0  0  0  0  0  0  0  0
   10.9521   -0.7078    0.0000 H   0  0  0  0  0  0  0  0  0  0  0  0
   10.0765   -0.6619    0.0000 H   0  0  0  0  0  0  0  0  0  0  0  0
    8.8954    6.2636    0.0000 H   0  0  0  0  0  0  0  0  0  0  0  0
    3.4030   -5.7636    0.0000 H   0  0  0  0  0  0  0  0  0  0  0  0
    3.9590   -6.1805    0.0000 H   0  0  0  0  0  0  0  0  0  0  0  0
    4.8059   -5.9536    0.0000 H   0  0  0  0  0  0  0  0  0  0  0  0
    4.5790   -5.1066    0.0000 H   0  0  0  0  0  0  0  0  0  0  0  0
    2.5369   -6.2636    0.0000 H   0  0  0  0  0  0  0  0  0  0  0  0
    2.0000   -5.3336    0.0000 H   0  0  0  0  0  0  0  0  0  0  0  0
  1 21  2  0  0  0  0
  2 24  2  0  0  0  0
  3 26  2  0  0  0  0
  4 31  1  0  0  0  0
  4 74  1  0  0  0  0
  5 30  2  0  0  0  0
  6 31  2  0  0  0  0
  7 36  2  0  0  0  0
  8 14  1  0  0  0  0
  8 17  1  0  0  0  0
  8 24  1  0  0  0  0
  9 18  1  0  0  0  0
  9 22  1  0  0  0  0
  9 26  1  0  0  0  0
 10 21  1  0  0  0  0
 23 10  1  6  0  0  0
 10 54  1  0  0  0  0
 27 11  1  6  0  0  0
 11 30  1  0  0  0  0
 11 60  1  0  0  0  0
 28 12  1  1  0  0  0
 12 36  1  0  0  0  0
 12 67  1  0  0  0  0
 37 13  1  6  0  0  0
 13 79  1  0  0  0  0
 13 80  1  0  0  0  0
 14 15  1  0  0  0  0
 14 21  1  1  0  0  0
 14 39  1  0  0  0  0
 15 16  1  0  0  0  0
 15 40  1  0  0  0  0
 15 41  1  0  0  0  0
 16 17  1  0  0  0  0
 16 42  1  0  0  0  0
 16 43  1  0  0  0  0
 17 44  1  0  0  0  0
 17 45  1  0  0  0  0
 18 19  1  0  0  0  0
 18 31  1  6  0  0  0
 18 46  1  0  0  0  0
 19 20  1  0  0  0  0
 19 47  1  0  0  0  0
 19 48  1  0  0  0  0
 20 22  1  0  0  0  0
 20 49  1  0  0  0  0
 20 50  1  0  0  0  0
 22 51  1  0  0  0  0
 22 52  1  0  0  0  0
 23 25  1  0  0  0  0
 23 30  1  0  0  0  0
 23 53  1  0  0  0  0
 24 28  1  0  0  0  0
 25 29  1  0  0  0  0
 25 55  1  0  0  0  0
 25 56  1  0  0  0  0
 26 27  1  0  0  0  0
 27 32  1  0  0  0  0
 27 57  1  0  0  0  0
 28 33  1  0  0  0  0
 28 58  1  0  0  0  0
 29 34  1  0  0  0  0
 29 35  1  0  0  0  0
 29 59  1  0  0  0  0
 32 61  1  0  0  0  0
 32 62  1  0  0  0  0
 32 63  1  0  0  0  0
 33 64  1  0  0  0  0
 33 65  1  0  0  0  0
 33 66  1  0  0  0  0
 34 68  1  0  0  0  0
 34 69  1  0  0  0  0
 34 70  1  0  0  0  0
 35 71  1  0  0  0  0
 35 72  1  0  0  0  0
 35 73  1  0  0  0  0
 36 37  1  0  0  0  0
 37 38  1  0  0  0  0
 37 75  1  0  0  0  0
 38 76  1  0  0  0  0
 38 77  1  0  0  0  0
 38 78  1  0  0  0  0
M  END
> <PUBCHEM_COMPOUND_CID>
102236983

> <PUBCHEM_COMPOUND_CANONICALIZED>
1

> <PUBCHEM_CACTVS_COMPLEXITY>
926

> <PUBCHEM_CACTVS_HBOND_ACCEPTOR>
8

> <PUBCHEM_CACTVS_HBOND_DONOR>
5

> <PUBCHEM_CACTVS_ROTATABLE_BOND>
11

> <PUBCHEM_CACTVS_SUBSKEYS>
AAADcfB7uAAAAAAAAAAAAAAAAAAAAWLAAAAAAAAAAAAAAAAAAAAAHgAQCAAADSjBgAQCCAPAAgAIAAGQGAAAAAAAAAAAAIGIAAACQBIAgCAUQAAEFgCQAACYEQIMAAAAAAAAAAAAAAAAAAAAAAAAAAAAAA==

> <PUBCHEM_IUPAC_OPENEYE_NAME>
(2S)-1-[(2S)-2-[[(2S)-2-[[(2S)-1-[(2S)-2-[[(2S)-2-aminopropanoyl]amino]propanoyl]pyrrolidine-2-carbonyl]amino]-4-methyl-pentanoyl]amino]propanoyl]pyrrolidine-2-carboxylic acid

> <PUBCHEM_IUPAC_CAS_NAME>
(2S)-1-[(2S)-2-[[(2S)-2-[[[(2S)-1-[(2S)-2-[[(2S)-2-amino-1-oxopropyl]amino]-1-oxopropyl]-2-pyrrolidinyl]-oxomethyl]amino]-4-methyl-1-oxopentyl]amino]-1-oxopropyl]-2-pyrrolidinecarboxylic acid

> <PUBCHEM_IUPAC_NAME_MARKUP>
(2<I>S</I>)-1-[(2<I>S</I>)-2-[[(2<I>S</I>)-2-[[(2<I>S</I>)-1-[(2<I>S</I>)-2-[[(2<I>S</I>)-2-aminopropanoyl]amino]propanoyl]pyrrolidine-2-carbonyl]amino]-4-methylpentanoyl]amino]propanoyl]pyrrolidine-2-carboxylic acid

> <PUBCHEM_IUPAC_NAME>
(2S)-1-[(2S)-2-[[(2S)-2-[[(2S)-1-[(2S)-2-[[(2S)-2-aminopropanoyl]amino]propanoyl]pyrrolidine-2-carbonyl]amino]-4-methylpentanoyl]amino]propanoyl]pyrrolidine-2-carboxylic acid

> <PUBCHEM_IUPAC_SYSTEMATIC_NAME>
(2S)-1-[(2S)-2-[[(2S)-2-[[(2S)-1-[(2S)-2-[[(2S)-2-azanylpropanoyl]amino]propanoyl]pyrrolidin-2-yl]carbonylamino]-4-methyl-pentanoyl]amino]propanoyl]pyrrolidine-2-carboxylic acid

> <PUBCHEM_IUPAC_TRADITIONAL_NAME>
(2S)-1-[(2S)-2-[[(2S)-2-[[(2S)-1-[(2S)-2-[[(2S)-2-aminopropanoyl]amino]propanoyl]prolyl]amino]-4-methyl-pentanoyl]amino]propanoyl]proline

> <PUBCHEM_IUPAC_INCHI>
InChI=1S/C25H42N6O7/c1-13(2)12-17(21(33)28-16(5)24(36)31-11-7-9-19(31)25(37)38)29-22(34)18-8-6-10-30(18)23(35)15(4)27-20(32)14(3)26/h13-19H,6-12,26H2,1-5H3,(H,27,32)(H,28,33)(H,29,34)(H,37,38)/t14-,15-,16-,17-,18-,19-/m0/s1

> <PUBCHEM_IUPAC_INCHIKEY>
LWFRJHZOTQSLPG-DYKIIFRCSA-N

> <PUBCHEM_XLOGP3>
-4

> <PUBCHEM_EXACT_MASS>
538.31149770

> <PUBCHEM_MOLECULAR_FORMULA>
C25H42N6O7

> <PUBCHEM_MOLECULAR_WEIGHT>
538.6

> <PUBCHEM_OPENEYE_CAN_SMILES>
CC(C)CC(C(=O)NC(C)C(=O)N1CCCC1C(=O)O)NC(=O)C2CCCN2C(=O)C(C)NC(=O)C(C)N

> <PUBCHEM_OPENEYE_ISO_SMILES>
C[C@@H](C(=O)N[C@@H](C)C(=O)N1CCC[C@H]1C(=O)N[C@@H](CC(C)C)C(=O)N[C@@H](C)C(=O)N2CCC[C@H]2C(=O)O)N

> <PUBCHEM_CACTVS_TPSA>
191

> <PUBCHEM_MONOISOTOPIC_WEIGHT>
538.31149770

> <PUBCHEM_TOTAL_CHARGE>
0

> <PUBCHEM_HEAVY_ATOM_COUNT>
38

> <PUBCHEM_ATOM_DEF_STEREO_COUNT>
6

> <PUBCHEM_ATOM_UDEF_STEREO_COUNT>
0

> <PUBCHEM_BOND_DEF_STEREO_COUNT>
0

> <PUBCHEM_BOND_UDEF_STEREO_COUNT>
0

> <PUBCHEM_ISOTOPIC_ATOM_COUNT>
0

> <PUBCHEM_COMPONENT_COUNT>
1

> <PUBCHEM_CACTVS_TAUTO_COUNT>
-1

> <PUBCHEM_COORDINATE_TYPE>
1
5
255

> <PUBCHEM_BONDANNOTATIONS>
23  10  6
27  11  6
28  12  5
37  13  6
14  21  5
18  31  6

$$$$
