 
  -OEChem-10192104012D

 56 55  0     1  0  0  0  0  0999 V2000
   10.3312    1.3450    0.0000 O   0  0  0  0  0  0  0  0  0  0  0  0
   12.9292   -1.1550    0.0000 O   0  0  0  0  0  0  0  0  0  0  0  0
   13.7953    1.3450    0.0000 O   0  0  0  0  0  0  0  0  0  0  0  0
   17.2594    0.3450    0.0000 O   0  0  0  0  0  0  0  0  0  0  0  0
    2.5369   -0.1550    0.0000 O   0  0  0  0  0  0  0  0  0  0  0  0
    3.4030    1.3450    0.0000 O   0  0  0  0  0  0  0  0  0  0  0  0
    7.7331   -0.1550    0.0000 C   0  0  0  0  0  0  0  0  0  0  0  0
    8.5991    0.3450    0.0000 C   0  0  0  0  0  0  0  0  0  0  0  0
    6.8671    0.3450    0.0000 C   0  0  0  0  0  0  0  0  0  0  0  0
    9.4651   -0.1550    0.0000 C   0  0  0  0  0  0  0  0  0  0  0  0
    6.0010   -0.1550    0.0000 C   0  0  0  0  0  0  0  0  0  0  0  0
   10.3312    0.3450    0.0000 C   0  0  1  0  0  0  0  0  0  0  0  0
    5.1350    0.3450    0.0000 C   0  0  0  0  0  0  0  0  0  0  0  0
   11.1972   -0.1550    0.0000 C   0  0  0  0  0  0  0  0  0  0  0  0
    4.2690   -0.1550    0.0000 C   0  0  0  0  0  0  0  0  0  0  0  0
   12.9292   -0.1550    0.0000 C   0  0  1  0  0  0  0  0  0  0  0  0
   12.0632    0.3450    0.0000 C   0  0  0  0  0  0  0  0  0  0  0  0
   13.7953    0.3450    0.0000 C   0  0  2  0  0  0  0  0  0  0  0  0
   14.6613   -0.1550    0.0000 C   0  0  0  0  0  0  0  0  0  0  0  0
   16.3933   -0.1550    0.0000 C   0  0  2  0  0  0  0  0  0  0  0  0
    3.4030    0.3450    0.0000 C   0  0  0  0  0  0  0  0  0  0  0  0
   15.5273    0.3450    0.0000 C   0  0  0  0  0  0  0  0  0  0  0  0
   16.3933   -1.1550    0.0000 C   0  0  0  0  0  0  0  0  0  0  0  0
   17.2594   -1.6550    0.0000 C   0  0  0  0  0  0  0  0  0  0  0  0
    7.3346   -0.6299    0.0000 H   0  0  0  0  0  0  0  0  0  0  0  0
    8.1316   -0.6299    0.0000 H   0  0  0  0  0  0  0  0  0  0  0  0
    8.9976    0.8199    0.0000 H   0  0  0  0  0  0  0  0  0  0  0  0
    8.2006    0.8199    0.0000 H   0  0  0  0  0  0  0  0  0  0  0  0
    7.2656    0.8199    0.0000 H   0  0  0  0  0  0  0  0  0  0  0  0
    6.4685    0.8199    0.0000 H   0  0  0  0  0  0  0  0  0  0  0  0
    9.0666   -0.6299    0.0000 H   0  0  0  0  0  0  0  0  0  0  0  0
    9.8637   -0.6299    0.0000 H   0  0  0  0  0  0  0  0  0  0  0  0
    5.6025   -0.6299    0.0000 H   0  0  0  0  0  0  0  0  0  0  0  0
    6.3996   -0.6299    0.0000 H   0  0  0  0  0  0  0  0  0  0  0  0
   10.8681    0.6550    0.0000 H   0  0  0  0  0  0  0  0  0  0  0  0
    5.5335    0.8199    0.0000 H   0  0  0  0  0  0  0  0  0  0  0  0
    4.7365    0.8199    0.0000 H   0  0  0  0  0  0  0  0  0  0  0  0
   11.1972   -0.7750    0.0000 H   0  0  0  0  0  0  0  0  0  0  0  0
    3.8705   -0.6299    0.0000 H   0  0  0  0  0  0  0  0  0  0  0  0
    4.6675   -0.6299    0.0000 H   0  0  0  0  0  0  0  0  0  0  0  0
   12.3923   -0.4650    0.0000 H   0  0  0  0  0  0  0  0  0  0  0  0
   12.0632    0.9650    0.0000 H   0  0  0  0  0  0  0  0  0  0  0  0
   14.3322    0.6550    0.0000 H   0  0  0  0  0  0  0  0  0  0  0  0
    9.7942    1.6550    0.0000 H   0  0  0  0  0  0  0  0  0  0  0  0
   14.6613   -0.7750    0.0000 H   0  0  0  0  0  0  0  0  0  0  0  0
   16.9303   -0.4650    0.0000 H   0  0  0  0  0  0  0  0  0  0  0  0
   15.5273    0.9650    0.0000 H   0  0  0  0  0  0  0  0  0  0  0  0
   15.7828   -1.0473    0.0000 H   0  0  0  0  0  0  0  0  0  0  0  0
   16.1813   -1.7376    0.0000 H   0  0  0  0  0  0  0  0  0  0  0  0
   12.3923   -1.4650    0.0000 H   0  0  0  0  0  0  0  0  0  0  0  0
   14.3322    1.6550    0.0000 H   0  0  0  0  0  0  0  0  0  0  0  0
   16.9494   -2.1919    0.0000 H   0  0  0  0  0  0  0  0  0  0  0  0
   17.7963   -1.9650    0.0000 H   0  0  0  0  0  0  0  0  0  0  0  0
   17.5694   -1.1181    0.0000 H   0  0  0  0  0  0  0  0  0  0  0  0
   17.7963    0.0350    0.0000 H   0  0  0  0  0  0  0  0  0  0  0  0
    2.0000    0.1550    0.0000 H   0  0  0  0  0  0  0  0  0  0  0  0
 12  1  1  6  0  0  0
  1 44  1  0  0  0  0
 16  2  1  1  0  0  0
  2 50  1  0  0  0  0
 18  3  1  1  0  0  0
  3 51  1  0  0  0  0
 20  4  1  1  0  0  0
  4 55  1  0  0  0  0
  5 21  1  0  0  0  0
  5 56  1  0  0  0  0
  6 21  2  0  0  0  0
  7  8  1  0  0  0  0
  7  9  1  0  0  0  0
  7 25  1  0  0  0  0
  7 26  1  0  0  0  0
  8 10  1  0  0  0  0
  8 27  1  0  0  0  0
  8 28  1  0  0  0  0
  9 11  1  0  0  0  0
  9 29  1  0  0  0  0
  9 30  1  0  0  0  0
 10 12  1  0  0  0  0
 10 31  1  0  0  0  0
 10 32  1  0  0  0  0
 11 13  1  0  0  0  0
 11 33  1  0  0  0  0
 11 34  1  0  0  0  0
 12 14  1  0  0  0  0
 12 35  1  0  0  0  0
 13 15  1  0  0  0  0
 13 36  1  0  0  0  0
 13 37  1  0  0  0  0
 14 17  2  0  0  0  0
 14 38  1  0  0  0  0
 15 21  1  0  0  0  0
 15 39  1  0  0  0  0
 15 40  1  0  0  0  0
 16 17  1  0  0  0  0
 16 18  1  0  0  0  0
 16 41  1  0  0  0  0
 17 42  1  0  0  0  0
 18 19  1  0  0  0  0
 18 43  1  0  0  0  0
 19 22  2  0  0  0  0
 19 45  1  0  0  0  0
 20 22  1  0  0  0  0
 20 23  1  0  0  0  0
 20 46  1  0  0  0  0
 22 47  1  0  0  0  0
 23 24  1  0  0  0  0
 23 48  1  0  0  0  0
 23 49  1  0  0  0  0
 24 52  1  0  0  0  0
 24 53  1  0  0  0  0
 24 54  1  0  0  0  0
M  END
> <PUBCHEM_COMPOUND_CID>
102339344

> <PUBCHEM_COMPOUND_CANONICALIZED>
1

> <PUBCHEM_CACTVS_COMPLEXITY>
380

> <PUBCHEM_CACTVS_HBOND_ACCEPTOR>
6

> <PUBCHEM_CACTVS_HBOND_DONOR>
5

> <PUBCHEM_CACTVS_ROTATABLE_BOND>
14

> <PUBCHEM_CACTVS_SUBSKEYS>
AAADcfB4OAAAAAAAAAAAAAAAAAAAAAAAAAAAAAAAAAAAAAAAAAAAGgAACAAACBSggAICCAAAAgCIACDSCAAAAAAgAAAICAEAAAgBFBIAAQAAUAAEwAAJEAOIyKCAAAAAAAAAAAAAAAAAAAAAAAAAAAAAAA==

> <PUBCHEM_IUPAC_OPENEYE_NAME>
(9S,10E,12S,13S,14E,16S)-9,12,13,16-tetrahydroxyoctadeca-10,14-dienoic acid

> <PUBCHEM_IUPAC_CAS_NAME>
(9S,10E,12S,13S,14E,16S)-9,12,13,16-tetrahydroxyoctadeca-10,14-dienoic acid

> <PUBCHEM_IUPAC_NAME_MARKUP>
(9<I>S</I>,10<I>E</I>,12<I>S</I>,13<I>S</I>,14<I>E</I>,16<I>S</I>)-9,12,13,16-tetrahydroxyoctadeca-10,14-dienoic acid

> <PUBCHEM_IUPAC_NAME>
(9S,10E,12S,13S,14E,16S)-9,12,13,16-tetrahydroxyoctadeca-10,14-dienoic acid

> <PUBCHEM_IUPAC_SYSTEMATIC_NAME>
(9S,10E,12S,13S,14E,16S)-9,12,13,16-tetrakis(oxidanyl)octadeca-10,14-dienoic acid

> <PUBCHEM_IUPAC_TRADITIONAL_NAME>
(9S,10E,12S,13S,14E,16S)-9,12,13,16-tetrahydroxyoctadeca-10,14-dienoic acid

> <PUBCHEM_IUPAC_INCHI>
InChI=1S/C18H32O6/c1-2-14(19)10-12-16(21)17(22)13-11-15(20)8-6-4-3-5-7-9-18(23)24/h10-17,19-22H,2-9H2,1H3,(H,23,24)/b12-10+,13-11+/t14-,15-,16-,17-/m0/s1

> <PUBCHEM_IUPAC_INCHIKEY>
FJZXLCCATXFBKE-IFHCOBGQSA-N

> <PUBCHEM_XLOGP3_AA>
1.3

> <PUBCHEM_EXACT_MASS>
344.21988874

> <PUBCHEM_MOLECULAR_FORMULA>
C18H32O6

> <PUBCHEM_MOLECULAR_WEIGHT>
344.4

> <PUBCHEM_OPENEYE_CAN_SMILES>
CCC(C=CC(C(C=CC(CCCCCCCC(=O)O)O)O)O)O

> <PUBCHEM_OPENEYE_ISO_SMILES>
CC[C@@H](/C=C/[C@@H]([C@H](/C=C/[C@H](CCCCCCCC(=O)O)O)O)O)O

> <PUBCHEM_CACTVS_TPSA>
118

> <PUBCHEM_MONOISOTOPIC_WEIGHT>
344.21988874

> <PUBCHEM_TOTAL_CHARGE>
0

> <PUBCHEM_HEAVY_ATOM_COUNT>
24

> <PUBCHEM_ATOM_DEF_STEREO_COUNT>
4

> <PUBCHEM_ATOM_UDEF_STEREO_COUNT>
0

> <PUBCHEM_BOND_DEF_STEREO_COUNT>
2

> <PUBCHEM_BOND_UDEF_STEREO_COUNT>
0

> <PUBCHEM_ISOTOPIC_ATOM_COUNT>
0

> <PUBCHEM_COMPONENT_COUNT>
1

> <PUBCHEM_CACTVS_TAUTO_COUNT>
-1

> <PUBCHEM_COORDINATE_TYPE>
1
5
255

> <PUBCHEM_BONDANNOTATIONS>
12  1  6
16  2  5
18  3  5
20  4  5

$$$$
