 
  -OEChem-10192103312D

 70 72  0     1  0  0  0  0  0999 V2000
    6.8671   -0.0950    0.0000 O   0  0  0  0  0  0  0  0  0  0  0  0
    6.0010   -2.5950    0.0000 O   0  0  0  0  0  0  0  0  0  0  0  0
    4.2690   -2.5950    0.0000 O   0  0  0  0  0  0  0  0  0  0  0  0
    7.7331    1.4050    0.0000 O   0  0  0  0  0  0  0  0  0  0  0  0
    7.7331   -2.5950    0.0000 O   0  0  0  0  0  0  0  0  0  0  0  0
    9.4651   -1.5950    0.0000 O   0  0  0  0  0  0  0  0  0  0  0  0
    9.4651    0.4050    0.0000 O   0  0  0  0  0  0  0  0  0  0  0  0
    6.0010   -4.5950    0.0000 O   0  0  0  0  0  0  0  0  0  0  0  0
    4.2690   -5.5950    0.0000 O   0  0  0  0  0  0  0  0  0  0  0  0
    2.5369   -4.5950    0.0000 O   0  0  0  0  0  0  0  0  0  0  0  0
    6.0010    1.4050    0.0000 O   0  0  0  0  0  0  0  0  0  0  0  0
    2.5369   -1.5950    0.0000 O   0  0  0  0  0  0  0  0  0  0  0  0
    3.4030    4.9050    0.0000 O   0  0  0  0  0  0  0  0  0  0  0  0
    5.1350    4.9050    0.0000 O   0  0  0  0  0  0  0  0  0  0  0  0
    6.8671   -1.0950    0.0000 C   0  0  3  0  0  0  0  0  0  0  0  0
    7.7331   -1.5950    0.0000 C   0  0  3  0  0  0  0  0  0  0  0  0
    8.5991   -1.0950    0.0000 C   0  0  3  0  0  0  0  0  0  0  0  0
    8.5991   -0.0950    0.0000 C   0  0  3  0  0  0  0  0  0  0  0  0
    5.1350   -4.0950    0.0000 C   0  0  3  0  0  0  0  0  0  0  0  0
    5.1350   -3.0950    0.0000 C   0  0  3  0  0  0  0  0  0  0  0  0
    7.7331    0.4050    0.0000 C   0  0  3  0  0  0  0  0  0  0  0  0
    4.2690   -4.5950    0.0000 C   0  0  3  0  0  0  0  0  0  0  0  0
    3.4030   -4.0950    0.0000 C   0  0  3  0  0  0  0  0  0  0  0  0
    6.0010   -1.5950    0.0000 C   0  0  0  0  0  0  0  0  0  0  0  0
    3.4030   -3.0950    0.0000 C   0  0  3  0  0  0  0  0  0  0  0  0
    2.5369   -2.5950    0.0000 C   0  0  0  0  0  0  0  0  0  0  0  0
    6.8671    1.9050    0.0000 C   0  0  2  0  0  0  0  0  0  0  0  0
    6.8671    2.9050    0.0000 C   0  0  0  0  0  0  0  0  0  0  0  0
    6.0010    3.4050    0.0000 C   0  0  0  0  0  0  0  0  0  0  0  0
    5.1350    2.9050    0.0000 C   0  0  0  0  0  0  0  0  0  0  0  0
    5.1350    1.9050    0.0000 C   0  0  0  0  0  0  0  0  0  0  0  0
    7.7331    3.4050    0.0000 C   0  0  0  0  0  0  0  0  0  0  0  0
    4.2690    3.4050    0.0000 C   0  0  0  0  0  0  0  0  0  0  0  0
    7.7331    4.4050    0.0000 C   0  0  0  0  0  0  0  0  0  0  0  0
    4.2690    4.4050    0.0000 C   0  0  0  0  0  0  0  0  0  0  0  0
    3.4030    5.9050    0.0000 C   0  0  0  0  0  0  0  0  0  0  0  0
    6.3301   -0.7850    0.0000 H   0  0  0  0  0  0  0  0  0  0  0  0
    8.2700   -1.9050    0.0000 H   0  0  0  0  0  0  0  0  0  0  0  0
    9.1360   -0.7850    0.0000 H   0  0  0  0  0  0  0  0  0  0  0  0
    8.5991    0.5250    0.0000 H   0  0  0  0  0  0  0  0  0  0  0  0
    5.1350   -4.7150    0.0000 H   0  0  0  0  0  0  0  0  0  0  0  0
    5.1350   -2.4750    0.0000 H   0  0  0  0  0  0  0  0  0  0  0  0
    7.1962    0.7150    0.0000 H   0  0  0  0  0  0  0  0  0  0  0  0
    3.7320   -4.9050    0.0000 H   0  0  0  0  0  0  0  0  0  0  0  0
    3.4030   -4.7150    0.0000 H   0  0  0  0  0  0  0  0  0  0  0  0
    5.7890   -1.0124    0.0000 H   0  0  0  0  0  0  0  0  0  0  0  0
    5.3905   -1.7027    0.0000 H   0  0  0  0  0  0  0  0  0  0  0  0
    3.4030   -2.4750    0.0000 H   0  0  0  0  0  0  0  0  0  0  0  0
    1.9264   -2.4873    0.0000 H   0  0  0  0  0  0  0  0  0  0  0  0
    2.3249   -3.1776    0.0000 H   0  0  0  0  0  0  0  0  0  0  0  0
    8.2700   -2.9050    0.0000 H   0  0  0  0  0  0  0  0  0  0  0  0
   10.0021   -1.2850    0.0000 H   0  0  0  0  0  0  0  0  0  0  0  0
    7.4040    2.2150    0.0000 H   0  0  0  0  0  0  0  0  0  0  0  0
    9.4651    1.0250    0.0000 H   0  0  0  0  0  0  0  0  0  0  0  0
    6.5380   -4.2850    0.0000 H   0  0  0  0  0  0  0  0  0  0  0  0
    3.7320   -5.9050    0.0000 H   0  0  0  0  0  0  0  0  0  0  0  0
    2.0000   -4.2850    0.0000 H   0  0  0  0  0  0  0  0  0  0  0  0
    6.3996    3.8800    0.0000 H   0  0  0  0  0  0  0  0  0  0  0  0
    5.6025    3.8800    0.0000 H   0  0  0  0  0  0  0  0  0  0  0  0
    2.0000   -1.2850    0.0000 H   0  0  0  0  0  0  0  0  0  0  0  0
    4.5981    1.5950    0.0000 H   0  0  0  0  0  0  0  0  0  0  0  0
    8.2700    3.0950    0.0000 H   0  0  0  0  0  0  0  0  0  0  0  0
    3.6584    3.5127    0.0000 H   0  0  0  0  0  0  0  0  0  0  0  0
    4.0569    2.8224    0.0000 H   0  0  0  0  0  0  0  0  0  0  0  0
    8.3531    4.4050    0.0000 H   0  0  0  0  0  0  0  0  0  0  0  0
    7.7331    5.0250    0.0000 H   0  0  0  0  0  0  0  0  0  0  0  0
    7.1131    4.4050    0.0000 H   0  0  0  0  0  0  0  0  0  0  0  0
    4.0230    5.9050    0.0000 H   0  0  0  0  0  0  0  0  0  0  0  0
    3.4030    6.5250    0.0000 H   0  0  0  0  0  0  0  0  0  0  0  0
    2.7830    5.9050    0.0000 H   0  0  0  0  0  0  0  0  0  0  0  0
  1 15  1  0  0  0  0
  1 21  1  0  0  0  0
  2 20  1  0  0  0  0
  2 24  1  0  0  0  0
  3 20  1  0  0  0  0
  3 25  1  0  0  0  0
  4 21  1  0  0  0  0
 27  4  1  6  0  0  0
  5 16  1  0  0  0  0
  5 51  1  0  0  0  0
  6 17  1  0  0  0  0
  6 52  1  0  0  0  0
  7 18  1  0  0  0  0
  7 54  1  0  0  0  0
  8 19  1  0  0  0  0
  8 55  1  0  0  0  0
  9 22  1  0  0  0  0
  9 56  1  0  0  0  0
 10 23  1  0  0  0  0
 10 57  1  0  0  0  0
 11 27  1  0  0  0  0
 11 31  1  0  0  0  0
 12 26  1  0  0  0  0
 12 60  1  0  0  0  0
 13 35  1  0  0  0  0
 13 36  1  0  0  0  0
 14 35  2  0  0  0  0
 15 16  1  0  0  0  0
 15 24  1  0  0  0  0
 15 37  1  0  0  0  0
 16 17  1  0  0  0  0
 16 38  1  0  0  0  0
 17 18  1  0  0  0  0
 17 39  1  0  0  0  0
 18 21  1  0  0  0  0
 18 40  1  0  0  0  0
 19 20  1  0  0  0  0
 19 22  1  0  0  0  0
 19 41  1  0  0  0  0
 20 42  1  0  0  0  0
 21 43  1  0  0  0  0
 22 23  1  0  0  0  0
 22 44  1  0  0  0  0
 23 25  1  0  0  0  0
 23 45  1  0  0  0  0
 24 46  1  0  0  0  0
 24 47  1  0  0  0  0
 25 26  1  0  0  0  0
 25 48  1  0  0  0  0
 26 49  1  0  0  0  0
 26 50  1  0  0  0  0
 27 28  1  0  0  0  0
 27 53  1  0  0  0  0
 28 29  1  0  0  0  0
 28 32  2  0  0  0  0
 29 30  1  0  0  0  0
 29 58  1  0  0  0  0
 29 59  1  0  0  0  0
 30 31  2  0  0  0  0
 30 33  1  0  0  0  0
 31 61  1  0  0  0  0
 32 34  1  0  0  0  0
 32 62  1  0  0  0  0
 33 35  1  0  0  0  0
 33 63  1  0  0  0  0
 33 64  1  0  0  0  0
 34 65  1  0  0  0  0
 34 66  1  0  0  0  0
 34 67  1  0  0  0  0
 36 68  1  0  0  0  0
 36 69  1  0  0  0  0
 36 70  1  0  0  0  0
M  END
> <PUBCHEM_COMPOUND_CID>
68012357

> <PUBCHEM_COMPOUND_CANONICALIZED>
1

> <PUBCHEM_CACTVS_COMPLEXITY>
802

> <PUBCHEM_CACTVS_HBOND_ACCEPTOR>
14

> <PUBCHEM_CACTVS_HBOND_DONOR>
7

> <PUBCHEM_CACTVS_ROTATABLE_BOND>
9

> <PUBCHEM_CACTVS_SUBSKEYS>
AAADcfB4PAAAAAAAAAAAAAAAAAAAAAAAAAAkSIAAAAAAAAAAAAAAGgAACAAADBSwgAMCCAAABgCIAiDSCAAACAAgIAAACAEAAAgRFBIAIQAiUAAFwAAPIAPIaAwAAAAAAAAAAAAAAAAAAAAAAAAAAAAAAA==

> <PUBCHEM_IUPAC_OPENEYE_NAME>
methyl 2-[(5E,6S)-5-ethylidene-6-[3,4,5-trihydroxy-6-[[3,4,5-trihydroxy-6-(hydroxymethyl)tetrahydropyran-2-yl]oxymethyl]tetrahydropyran-2-yl]oxy-4H-pyran-3-yl]acetate

> <PUBCHEM_IUPAC_CAS_NAME>
2-[(5E,6S)-5-ethylidene-6-[[3,4,5-trihydroxy-6-[[3,4,5-trihydroxy-6-(hydroxymethyl)-2-oxanyl]oxymethyl]-2-oxanyl]oxy]-4H-pyran-3-yl]acetic acid methyl ester

> <PUBCHEM_IUPAC_NAME_MARKUP>
methyl 2-[(5<I>E</I>,6<I>S</I>)-5-ethylidene-6-[3,4,5-trihydroxy-6-[[3,4,5-trihydroxy-6-(hydroxymethyl)oxan-2-yl]oxymethyl]oxan-2-yl]oxy-4<I>H</I>-pyran-3-yl]acetate

> <PUBCHEM_IUPAC_NAME>
methyl 2-[(5E,6S)-5-ethylidene-6-[3,4,5-trihydroxy-6-[[3,4,5-trihydroxy-6-(hydroxymethyl)oxan-2-yl]oxymethyl]oxan-2-yl]oxy-4H-pyran-3-yl]acetate

> <PUBCHEM_IUPAC_SYSTEMATIC_NAME>
methyl 2-[(5E,6S)-5-ethylidene-6-[6-[[6-(hydroxymethyl)-3,4,5-tris(oxidanyl)oxan-2-yl]oxymethyl]-3,4,5-tris(oxidanyl)oxan-2-yl]oxy-4H-pyran-3-yl]ethanoate

> <PUBCHEM_IUPAC_TRADITIONAL_NAME>
2-[(5E,6S)-5-ethylidene-6-[3,4,5-trihydroxy-6-[(3,4,5-trihydroxy-6-methylol-tetrahydropyran-2-yl)oxymethyl]tetrahydropyran-2-yl]oxy-4H-pyran-3-yl]acetic acid methyl ester

> <PUBCHEM_IUPAC_INCHI>
InChI=1S/C22H34O14/c1-3-10-4-9(5-13(24)31-2)7-32-20(10)36-22-19(30)17(28)15(26)12(35-22)8-33-21-18(29)16(27)14(25)11(6-23)34-21/h3,7,11-12,14-23,25-30H,4-6,8H2,1-2H3/b10-3+/t11?,12?,14?,15?,16?,17?,18?,19?,20-,21?,22?/m0/s1

> <PUBCHEM_IUPAC_INCHIKEY>
MJXBGHINLLTXEC-SFVDGMJDSA-N

> <PUBCHEM_XLOGP3_AA>
-3.7

> <PUBCHEM_EXACT_MASS>
522.19485575

> <PUBCHEM_MOLECULAR_FORMULA>
C22H34O14

> <PUBCHEM_MOLECULAR_WEIGHT>
522.5

> <PUBCHEM_OPENEYE_CAN_SMILES>
CC=C1CC(=COC1OC2C(C(C(C(O2)COC3C(C(C(C(O3)CO)O)O)O)O)O)O)CC(=O)OC

> <PUBCHEM_OPENEYE_ISO_SMILES>
C/C=C/1\CC(=CO[C@H]1OC2C(C(C(C(O2)COC3C(C(C(C(O3)CO)O)O)O)O)O)O)CC(=O)OC

> <PUBCHEM_CACTVS_TPSA>
214

> <PUBCHEM_MONOISOTOPIC_WEIGHT>
522.19485575

> <PUBCHEM_TOTAL_CHARGE>
0

> <PUBCHEM_HEAVY_ATOM_COUNT>
36

> <PUBCHEM_ATOM_DEF_STEREO_COUNT>
1

> <PUBCHEM_ATOM_UDEF_STEREO_COUNT>
10

> <PUBCHEM_BOND_DEF_STEREO_COUNT>
1

> <PUBCHEM_BOND_UDEF_STEREO_COUNT>
0

> <PUBCHEM_ISOTOPIC_ATOM_COUNT>
0

> <PUBCHEM_COMPONENT_COUNT>
1

> <PUBCHEM_CACTVS_TAUTO_COUNT>
-1

> <PUBCHEM_COORDINATE_TYPE>
1
5
255

> <PUBCHEM_BONDANNOTATIONS>
23  10  3
15  24  3
20  2  3
25  26  3
21  4  3
27  4  6
16  5  3
17  6  3
18  7  3
19  8  3
22  9  3

$$$$
