 
  -OEChem-10192104062D

 32 33  0     1  0  0  0  0  0999 V2000
    6.4641   -2.3660    0.0000 O   0  0  0  0  0  0  0  0  0  0  0  0
    2.3660   -1.0000    0.0000 O   0  0  0  0  0  0  0  0  0  0  0  0
    7.8301    0.0000    0.0000 O   0  0  0  0  0  0  0  0  0  0  0  0
    2.0000    1.3660    0.0000 O   0  0  0  0  0  0  0  0  0  0  0  0
    9.5622   -1.0000    0.0000 O   0  0  0  0  0  0  0  0  0  0  0  0
    6.9641   -1.5000    0.0000 C   0  0  2  0  0  0  0  0  0  0  0  0
    5.9641   -1.5000    0.0000 C   0  0  2  0  0  0  0  0  0  0  0  0
    3.3660   -1.0000    0.0000 C   0  0  2  0  0  0  0  0  0  0  0  0
    2.8660   -0.1340    0.0000 C   0  0  2  0  0  0  0  0  0  0  0  0
    7.8301   -1.0000    0.0000 C   0  0  1  0  0  0  0  0  0  0  0  0
    5.0981   -1.0000    0.0000 C   0  0  0  0  0  0  0  0  0  0  0  0
    4.2320   -1.5000    0.0000 C   0  0  0  0  0  0  0  0  0  0  0  0
    2.8660    0.8660    0.0000 C   0  0  1  0  0  0  0  0  0  0  0  0
    8.6962   -1.5000    0.0000 C   0  0  0  0  0  0  0  0  0  0  0  0
    3.7320    1.3660    0.0000 C   0  0  0  0  0  0  0  0  0  0  0  0
    3.7320    2.3660    0.0000 C   0  0  0  0  0  0  0  0  0  0  0  0
    7.4025   -1.9384    0.0000 H   0  0  0  0  0  0  0  0  0  0  0  0
    5.5257   -1.9384    0.0000 H   0  0  0  0  0  0  0  0  0  0  0  0
    3.2056   -1.5989    0.0000 H   0  0  0  0  0  0  0  0  0  0  0  0
    2.2672    0.0265    0.0000 H   0  0  0  0  0  0  0  0  0  0  0  0
    8.3671   -0.6900    0.0000 H   0  0  0  0  0  0  0  0  0  0  0  0
    5.0981   -0.3800    0.0000 H   0  0  0  0  0  0  0  0  0  0  0  0
    4.2320   -2.1200    0.0000 H   0  0  0  0  0  0  0  0  0  0  0  0
    2.3291    0.5560    0.0000 H   0  0  0  0  0  0  0  0  0  0  0  0
    8.2976   -1.9750    0.0000 H   0  0  0  0  0  0  0  0  0  0  0  0
    9.0947   -1.9750    0.0000 H   0  0  0  0  0  0  0  0  0  0  0  0
    4.2690    1.0560    0.0000 H   0  0  0  0  0  0  0  0  0  0  0  0
    8.3671    0.3100    0.0000 H   0  0  0  0  0  0  0  0  0  0  0  0
    2.0000    1.9860    0.0000 H   0  0  0  0  0  0  0  0  0  0  0  0
   10.0991   -1.3100    0.0000 H   0  0  0  0  0  0  0  0  0  0  0  0
    4.2690    2.6760    0.0000 H   0  0  0  0  0  0  0  0  0  0  0  0
    3.1951    2.6760    0.0000 H   0  0  0  0  0  0  0  0  0  0  0  0
  6  1  1  6  0  0  0
  1  7  1  0  0  0  0
  2  8  1  0  0  0  0
  9  2  1  1  0  0  0
 10  3  1  6  0  0  0
  3 28  1  0  0  0  0
 13  4  1  6  0  0  0
  4 29  1  0  0  0  0
  5 14  1  0  0  0  0
  5 30  1  0  0  0  0
  6  7  1  0  0  0  0
  6 10  1  0  0  0  0
  6 17  1  0  0  0  0
  7 11  1  1  0  0  0
  7 18  1  0  0  0  0
  8  9  1  0  0  0  0
  8 12  1  6  0  0  0
  8 19  1  0  0  0  0
  9 13  1  0  0  0  0
  9 20  1  0  0  0  0
 10 14  1  0  0  0  0
 10 21  1  0  0  0  0
 11 12  2  0  0  0  0
 11 22  1  0  0  0  0
 12 23  1  0  0  0  0
 13 15  1  0  0  0  0
 13 24  1  0  0  0  0
 14 25  1  0  0  0  0
 14 26  1  0  0  0  0
 15 16  2  0  0  0  0
 15 27  1  0  0  0  0
 16 31  1  0  0  0  0
 16 32  1  0  0  0  0
M  END
> <PUBCHEM_COMPOUND_CID>
5283267

> <PUBCHEM_COMPOUND_CANONICALIZED>
1

> <PUBCHEM_CACTVS_COMPLEXITY>
290

> <PUBCHEM_CACTVS_HBOND_ACCEPTOR>
5

> <PUBCHEM_CACTVS_HBOND_DONOR>
3

> <PUBCHEM_CACTVS_ROTATABLE_BOND>
6

> <PUBCHEM_CACTVS_SUBSKEYS>
AAADceBwOAAAAAAAAAAAAAAAEiQAAAAAAAAAAAAAAAAAAAAAAAAAGgAACAAACBSggAIAAAAABgCAACBCAAAAAAAgAAAICAAAAAgBFAIAIQACUAAFwAALMALAAAAAAAAAAAAAAAAAAAAAAAAAAAAAAAAAAA==

> <PUBCHEM_IUPAC_OPENEYE_NAME>
(1R)-1-[(2S,3S)-3-[(E)-2-[(2S,3S)-3-[(1R)-1-hydroxyallyl]oxiran-2-yl]vinyl]oxiran-2-yl]ethane-1,2-diol

> <PUBCHEM_IUPAC_CAS_NAME>
(1R)-1-[(2S,3S)-3-[(E)-2-[(2S,3S)-3-[(1R)-1-hydroxyprop-2-enyl]-2-oxiranyl]ethenyl]-2-oxiranyl]ethane-1,2-diol

> <PUBCHEM_IUPAC_NAME_MARKUP>
(1<I>R</I>)-1-[(2<I>S</I>,3<I>S</I>)-3-[(<I>E</I>)-2-[(2<I>S</I>,3<I>S</I>)-3-[(1<I>R</I>)-1-hydroxyprop-2-enyl]oxiran-2-yl]ethenyl]oxiran-2-yl]ethane-1,2-diol

> <PUBCHEM_IUPAC_NAME>
(1R)-1-[(2S,3S)-3-[(E)-2-[(2S,3S)-3-[(1R)-1-hydroxyprop-2-enyl]oxiran-2-yl]ethenyl]oxiran-2-yl]ethane-1,2-diol

> <PUBCHEM_IUPAC_SYSTEMATIC_NAME>
(1R)-1-[(2S,3S)-3-[(E)-2-[(2S,3S)-3-[(1R)-1-oxidanylprop-2-enyl]oxiran-2-yl]ethenyl]oxiran-2-yl]ethane-1,2-diol

> <PUBCHEM_IUPAC_TRADITIONAL_NAME>
(1R)-1-[(2S,3S)-3-[(E)-2-[(2S,3S)-3-[(1R)-1-hydroxyallyl]oxiran-2-yl]vinyl]oxiran-2-yl]ethane-1,2-diol

> <PUBCHEM_IUPAC_INCHI>
InChI=1S/C11H16O5/c1-2-6(13)10-8(15-10)3-4-9-11(16-9)7(14)5-12/h2-4,6-14H,1,5H2/b4-3+/t6-,7-,8+,9+,10+,11+/m1/s1

> <PUBCHEM_IUPAC_INCHIKEY>
WWAQOPQUSWZTHG-SHEFQFEDSA-N

> <PUBCHEM_XLOGP3_AA>
-1.3

> <PUBCHEM_EXACT_MASS>
228.09977361

> <PUBCHEM_MOLECULAR_FORMULA>
C11H16O5

> <PUBCHEM_MOLECULAR_WEIGHT>
228.24

> <PUBCHEM_OPENEYE_CAN_SMILES>
C=CC(C1C(O1)C=CC2C(O2)C(CO)O)O

> <PUBCHEM_OPENEYE_ISO_SMILES>
C=C[C@H]([C@H]1[C@@H](O1)/C=C/[C@H]2[C@@H](O2)[C@@H](CO)O)O

> <PUBCHEM_CACTVS_TPSA>
85.8

> <PUBCHEM_MONOISOTOPIC_WEIGHT>
228.09977361

> <PUBCHEM_TOTAL_CHARGE>
0

> <PUBCHEM_HEAVY_ATOM_COUNT>
16

> <PUBCHEM_ATOM_DEF_STEREO_COUNT>
6

> <PUBCHEM_ATOM_UDEF_STEREO_COUNT>
0

> <PUBCHEM_BOND_DEF_STEREO_COUNT>
1

> <PUBCHEM_BOND_UDEF_STEREO_COUNT>
0

> <PUBCHEM_ISOTOPIC_ATOM_COUNT>
0

> <PUBCHEM_COMPONENT_COUNT>
1

> <PUBCHEM_CACTVS_TAUTO_COUNT>
-1

> <PUBCHEM_COORDINATE_TYPE>
1
5
255

> <PUBCHEM_BONDANNOTATIONS>
6  1  6
9  2  5
10  3  6
13  4  6
7  11  5
8  12  6

$$$$
