 
  -OEChem-10192104192D

 36 35  0     1  0  0  0  0  0999 V2000
   10.3312   -0.5950    0.0000 O   0  0  0  0  0  0  0  0  0  0  0  0
    6.8671   -2.5950    0.0000 O   0  0  0  0  0  0  0  0  0  0  0  0
    2.5369   -1.0950    0.0000 O   0  0  0  0  0  0  0  0  0  0  0  0
    3.4030   -2.5950    0.0000 O   0  0  0  0  0  0  0  0  0  0  0  0
    9.4651    0.9050    0.0000 C   0  0  0  0  0  0  0  0  0  0  0  0
   10.3312    1.4050    0.0000 C   0  0  0  0  0  0  0  0  0  0  0  0
    6.0010   -1.0950    0.0000 C   0  0  0  0  0  0  0  0  0  0  0  0
    5.1350   -1.5950    0.0000 C   0  0  0  0  0  0  0  0  0  0  0  0
    9.4651   -0.0950    0.0000 C   0  0  2  0  0  0  0  0  0  0  0  0
   10.3312    2.4050    0.0000 C   0  0  0  0  0  0  0  0  0  0  0  0
    6.8671   -1.5950    0.0000 C   0  0  1  0  0  0  0  0  0  0  0  0
    4.2690   -1.0950    0.0000 C   0  0  0  0  0  0  0  0  0  0  0  0
   11.1972    2.9050    0.0000 C   0  0  0  0  0  0  0  0  0  0  0  0
    8.5991   -0.5950    0.0000 C   0  0  0  0  0  0  0  0  0  0  0  0
    7.7331   -1.0950    0.0000 C   0  0  0  0  0  0  0  0  0  0  0  0
    3.4030   -1.5950    0.0000 C   0  0  0  0  0  0  0  0  0  0  0  0
    9.2531    1.4876    0.0000 H   0  0  0  0  0  0  0  0  0  0  0  0
    8.8546    0.7973    0.0000 H   0  0  0  0  0  0  0  0  0  0  0  0
   10.5432    0.8224    0.0000 H   0  0  0  0  0  0  0  0  0  0  0  0
   10.9417    1.5127    0.0000 H   0  0  0  0  0  0  0  0  0  0  0  0
    6.3996   -0.6201    0.0000 H   0  0  0  0  0  0  0  0  0  0  0  0
    5.6025   -0.6201    0.0000 H   0  0  0  0  0  0  0  0  0  0  0  0
    4.7365   -2.0700    0.0000 H   0  0  0  0  0  0  0  0  0  0  0  0
    5.5335   -2.0700    0.0000 H   0  0  0  0  0  0  0  0  0  0  0  0
   10.0021    0.2150    0.0000 H   0  0  0  0  0  0  0  0  0  0  0  0
   10.1191    2.9876    0.0000 H   0  0  0  0  0  0  0  0  0  0  0  0
    9.7206    2.2973    0.0000 H   0  0  0  0  0  0  0  0  0  0  0  0
    6.3301   -1.9050    0.0000 H   0  0  0  0  0  0  0  0  0  0  0  0
    4.6675   -0.6201    0.0000 H   0  0  0  0  0  0  0  0  0  0  0  0
    3.8705   -0.6201    0.0000 H   0  0  0  0  0  0  0  0  0  0  0  0
   11.5072    2.3681    0.0000 H   0  0  0  0  0  0  0  0  0  0  0  0
   11.7341    3.2150    0.0000 H   0  0  0  0  0  0  0  0  0  0  0  0
   10.8872    3.4419    0.0000 H   0  0  0  0  0  0  0  0  0  0  0  0
   10.8681   -0.2850    0.0000 H   0  0  0  0  0  0  0  0  0  0  0  0
    7.4040   -2.9050    0.0000 H   0  0  0  0  0  0  0  0  0  0  0  0
    2.0000   -1.4050    0.0000 H   0  0  0  0  0  0  0  0  0  0  0  0
  9  1  1  1  0  0  0
  1 34  1  0  0  0  0
 11  2  1  1  0  0  0
  2 35  1  0  0  0  0
  3 16  1  0  0  0  0
  3 36  1  0  0  0  0
  4 16  2  0  0  0  0
  5  6  1  0  0  0  0
  5  9  1  0  0  0  0
  5 17  1  0  0  0  0
  5 18  1  0  0  0  0
  6 10  1  0  0  0  0
  6 19  1  0  0  0  0
  6 20  1  0  0  0  0
  7  8  1  0  0  0  0
  7 11  1  0  0  0  0
  7 21  1  0  0  0  0
  7 22  1  0  0  0  0
  8 12  1  0  0  0  0
  8 23  1  0  0  0  0
  8 24  1  0  0  0  0
  9 14  1  0  0  0  0
  9 25  1  0  0  0  0
 10 13  1  0  0  0  0
 10 26  1  0  0  0  0
 10 27  1  0  0  0  0
 11 15  1  0  0  0  0
 11 28  1  0  0  0  0
 12 16  1  0  0  0  0
 12 29  1  0  0  0  0
 12 30  1  0  0  0  0
 13 31  1  0  0  0  0
 13 32  1  0  0  0  0
 13 33  1  0  0  0  0
 14 15  3  0  0  0  0
M  END
> <PUBCHEM_COMPOUND_CID>
24800367

> <PUBCHEM_COMPOUND_CANONICALIZED>
1

> <PUBCHEM_CACTVS_COMPLEXITY>
261

> <PUBCHEM_CACTVS_HBOND_ACCEPTOR>
4

> <PUBCHEM_CACTVS_HBOND_DONOR>
3

> <PUBCHEM_CACTVS_ROTATABLE_BOND>
7

> <PUBCHEM_CACTVS_SUBSKEYS>
AAADceBwOAAAAAAAAAAAAAAAAAAAAAAAAAAAAAAAAAAAAAAAAAAAGgAACAAACBSggAICCAAAAgBIEACQCAgAAAAAAAAAAAEAAAAAEBIAAAAAQAAEAAAAAAGIbARAAAAAAAAAAAAAAAAAAAAAAAAAAAAAAA==

> <PUBCHEM_IUPAC_OPENEYE_NAME>
(5S,8R)-5,8-dihydroxydodec-6-ynoic acid

> <PUBCHEM_IUPAC_CAS_NAME>
(5S,8R)-5,8-dihydroxy-6-dodecynoic acid

> <PUBCHEM_IUPAC_NAME_MARKUP>
(5<I>S</I>,8<I>R</I>)-5,8-dihydroxydodec-6-ynoic acid

> <PUBCHEM_IUPAC_NAME>
(5S,8R)-5,8-dihydroxydodec-6-ynoic acid

> <PUBCHEM_IUPAC_SYSTEMATIC_NAME>
(5S,8R)-5,8-bis(oxidanyl)dodec-6-ynoic acid

> <PUBCHEM_IUPAC_TRADITIONAL_NAME>
(5S,8R)-5,8-dihydroxydodec-6-ynoic acid

> <PUBCHEM_IUPAC_INCHI>
InChI=1S/C12H20O4/c1-2-3-5-10(13)8-9-11(14)6-4-7-12(15)16/h10-11,13-14H,2-7H2,1H3,(H,15,16)/t10-,11+/m1/s1

> <PUBCHEM_IUPAC_INCHIKEY>
FFERRNKFKPTEJW-MNOVXSKESA-N

> <PUBCHEM_XLOGP3_AA>
1

> <PUBCHEM_EXACT_MASS>
228.13615911

> <PUBCHEM_MOLECULAR_FORMULA>
C12H20O4

> <PUBCHEM_MOLECULAR_WEIGHT>
228.28

> <PUBCHEM_OPENEYE_CAN_SMILES>
CCCCC(C#CC(CCCC(=O)O)O)O

> <PUBCHEM_OPENEYE_ISO_SMILES>
CCCC[C@H](C#C[C@H](CCCC(=O)O)O)O

> <PUBCHEM_CACTVS_TPSA>
77.8

> <PUBCHEM_MONOISOTOPIC_WEIGHT>
228.13615911

> <PUBCHEM_TOTAL_CHARGE>
0

> <PUBCHEM_HEAVY_ATOM_COUNT>
16

> <PUBCHEM_ATOM_DEF_STEREO_COUNT>
2

> <PUBCHEM_ATOM_UDEF_STEREO_COUNT>
0

> <PUBCHEM_BOND_DEF_STEREO_COUNT>
0

> <PUBCHEM_BOND_UDEF_STEREO_COUNT>
0

> <PUBCHEM_ISOTOPIC_ATOM_COUNT>
0

> <PUBCHEM_COMPONENT_COUNT>
1

> <PUBCHEM_CACTVS_TAUTO_COUNT>
-1

> <PUBCHEM_COORDINATE_TYPE>
1
5
255

> <PUBCHEM_BONDANNOTATIONS>
9  1  5
11  2  5

$$$$
