 
  -OEChem-10192104032D

 47 48  0     1  0  0  0  0  0999 V2000
    6.3871    3.6307    0.0000 O   0  0  0  0  0  0  0  0  0  0  0  0
    8.2839    5.3907    0.0000 O   0  0  0  0  0  0  0  0  0  0  0  0
    6.3301    0.5429    0.0000 O   0  0  0  0  0  0  0  0  0  0  0  0
    8.9562    3.3216    0.0000 O   0  0  0  0  0  0  0  0  0  0  0  0
    6.1084    5.3907    0.0000 O   0  0  0  0  0  0  0  0  0  0  0  0
    2.8660   -2.4571    0.0000 O   0  0  0  0  0  0  0  0  0  0  0  0
    6.3301   -4.4571    0.0000 O   0  0  0  0  0  0  0  0  0  0  0  0
    4.5981   -5.4571    0.0000 O   0  0  0  0  0  0  0  0  0  0  0  0
    4.5981    0.5429    0.0000 O   0  0  0  0  0  0  0  0  0  0  0  0
    7.1962    3.0429    0.0000 C   0  0  2  0  0  0  0  0  0  0  0  0
    7.1962    2.0429    0.0000 C   0  0  0  0  0  0  0  0  0  0  0  0
    8.0052    3.6307    0.0000 C   0  0  0  0  0  0  0  0  0  0  0  0
    7.6962    4.5817    0.0000 C   0  0  3  0  0  0  0  0  0  0  0  0
    6.3301    1.5429    0.0000 C   0  0  0  0  0  0  0  0  0  0  0  0
    6.6962    4.5817    0.0000 C   0  0  0  0  0  0  0  0  0  0  0  0
    5.4641    0.0429    0.0000 C   0  0  0  0  0  0  0  0  0  0  0  0
    4.5981   -2.4571    0.0000 C   0  0  0  0  0  0  0  0  0  0  0  0
    3.7320   -2.9571    0.0000 C   0  0  0  0  0  0  0  0  0  0  0  0
    5.4641   -2.9571    0.0000 C   0  0  0  0  0  0  0  0  0  0  0  0
    4.5981   -1.4571    0.0000 C   0  0  0  0  0  0  0  0  0  0  0  0
    5.4641   -0.9571    0.0000 C   0  0  0  0  0  0  0  0  0  0  0  0
    5.4641   -3.9571    0.0000 C   0  0  0  0  0  0  0  0  0  0  0  0
    4.5981   -4.4571    0.0000 C   0  0  0  0  0  0  0  0  0  0  0  0
    3.7320   -3.9571    0.0000 C   0  0  0  0  0  0  0  0  0  0  0  0
    2.0000   -2.9571    0.0000 C   0  0  0  0  0  0  0  0  0  0  0  0
    7.1962   -3.9571    0.0000 C   0  0  0  0  0  0  0  0  0  0  0  0
    3.7320   -5.9571    0.0000 C   0  0  0  0  0  0  0  0  0  0  0  0
    6.6437    2.7614    0.0000 H   0  0  0  0  0  0  0  0  0  0  0  0
    7.4082    1.4603    0.0000 H   0  0  0  0  0  0  0  0  0  0  0  0
    7.8067    2.1505    0.0000 H   0  0  0  0  0  0  0  0  0  0  0  0
    7.4147    5.1341    0.0000 H   0  0  0  0  0  0  0  0  0  0  0  0
    6.1181    2.1255    0.0000 H   0  0  0  0  0  0  0  0  0  0  0  0
    5.7196    1.4352    0.0000 H   0  0  0  0  0  0  0  0  0  0  0  0
    8.0318    5.9571    0.0000 H   0  0  0  0  0  0  0  0  0  0  0  0
    6.0010   -2.6471    0.0000 H   0  0  0  0  0  0  0  0  0  0  0  0
    4.0611   -1.1471    0.0000 H   0  0  0  0  0  0  0  0  0  0  0  0
    6.0010   -1.2671    0.0000 H   0  0  0  0  0  0  0  0  0  0  0  0
    3.1951   -4.2671    0.0000 H   0  0  0  0  0  0  0  0  0  0  0  0
    1.6900   -2.4202    0.0000 H   0  0  0  0  0  0  0  0  0  0  0  0
    1.4631   -3.2671    0.0000 H   0  0  0  0  0  0  0  0  0  0  0  0
    2.3100   -3.4941    0.0000 H   0  0  0  0  0  0  0  0  0  0  0  0
    7.5062   -4.4941    0.0000 H   0  0  0  0  0  0  0  0  0  0  0  0
    7.7331   -3.6471    0.0000 H   0  0  0  0  0  0  0  0  0  0  0  0
    6.8862   -3.4202    0.0000 H   0  0  0  0  0  0  0  0  0  0  0  0
    3.4220   -5.4202    0.0000 H   0  0  0  0  0  0  0  0  0  0  0  0
    3.1951   -6.2671    0.0000 H   0  0  0  0  0  0  0  0  0  0  0  0
    4.0420   -6.4941    0.0000 H   0  0  0  0  0  0  0  0  0  0  0  0
  1 10  1  0  0  0  0
  1 15  1  0  0  0  0
  2 13  1  0  0  0  0
  2 34  1  0  0  0  0
  3 14  1  0  0  0  0
  3 16  1  0  0  0  0
  4 12  2  0  0  0  0
  5 15  2  0  0  0  0
  6 18  1  0  0  0  0
  6 25  1  0  0  0  0
  7 22  1  0  0  0  0
  7 26  1  0  0  0  0
  8 23  1  0  0  0  0
  8 27  1  0  0  0  0
  9 16  2  0  0  0  0
 10 11  1  1  0  0  0
 10 12  1  0  0  0  0
 10 28  1  0  0  0  0
 11 14  1  0  0  0  0
 11 29  1  0  0  0  0
 11 30  1  0  0  0  0
 12 13  1  0  0  0  0
 13 15  1  0  0  0  0
 13 31  1  0  0  0  0
 14 32  1  0  0  0  0
 14 33  1  0  0  0  0
 16 21  1  0  0  0  0
 17 18  1  0  0  0  0
 17 19  2  0  0  0  0
 17 20  1  0  0  0  0
 18 24  2  0  0  0  0
 19 22  1  0  0  0  0
 19 35  1  0  0  0  0
 20 21  2  3  0  0  0
 20 36  1  0  0  0  0
 21 37  1  0  0  0  0
 22 23  2  0  0  0  0
 23 24  1  0  0  0  0
 24 38  1  0  0  0  0
 25 39  1  0  0  0  0
 25 40  1  0  0  0  0
 25 41  1  0  0  0  0
 26 42  1  0  0  0  0
 26 43  1  0  0  0  0
 26 44  1  0  0  0  0
 27 45  1  0  0  0  0
 27 46  1  0  0  0  0
 27 47  1  0  0  0  0
M  END
> <PUBCHEM_COMPOUND_CID>
123858555

> <PUBCHEM_COMPOUND_CANONICALIZED>
1

> <PUBCHEM_CACTVS_COMPLEXITY>
573

> <PUBCHEM_CACTVS_HBOND_ACCEPTOR>
9

> <PUBCHEM_CACTVS_HBOND_DONOR>
1

> <PUBCHEM_CACTVS_ROTATABLE_BOND>
9

> <PUBCHEM_CACTVS_SUBSKEYS>
AAADceB4PAAAAAAAAAAAAAAAAAAAASAAAAAwAAAAAAAAAAABAAAAGgAACAAADBSgmAIyDoAABgCIAqDSCAICCAAgIAAIiAFGiMgNNzaMMR6CcCIl4BULqYfK6DwOIQABCAAIQABCAAIQABCAAAAAAAAAAA==

> <PUBCHEM_IUPAC_OPENEYE_NAME>
2-[(2R)-4-hydroxy-3,5-dioxo-tetrahydrofuran-2-yl]ethyl 3-(2,4,5-trimethoxyphenyl)prop-2-enoate

> <PUBCHEM_IUPAC_CAS_NAME>
3-(2,4,5-trimethoxyphenyl)-2-propenoic acid 2-[(2R)-4-hydroxy-3,5-dioxo-2-oxolanyl]ethyl ester

> <PUBCHEM_IUPAC_NAME_MARKUP>
2-[(2<I>R</I>)-4-hydroxy-3,5-dioxooxolan-2-yl]ethyl 3-(2,4,5-trimethoxyphenyl)prop-2-enoate

> <PUBCHEM_IUPAC_NAME>
2-[(2R)-4-hydroxy-3,5-dioxooxolan-2-yl]ethyl 3-(2,4,5-trimethoxyphenyl)prop-2-enoate

> <PUBCHEM_IUPAC_SYSTEMATIC_NAME>
2-[(2R)-4-oxidanyl-3,5-bis(oxidanylidene)oxolan-2-yl]ethyl 3-(2,4,5-trimethoxyphenyl)prop-2-enoate

> <PUBCHEM_IUPAC_TRADITIONAL_NAME>
3-asarylacrylic acid 2-[(2R)-4-hydroxy-3,5-diketo-tetrahydrofuran-2-yl]ethyl ester

> <PUBCHEM_IUPAC_INCHI>
InChI=1S/C18H20O9/c1-23-12-9-14(25-3)13(24-2)8-10(12)4-5-15(19)26-7-6-11-16(20)17(21)18(22)27-11/h4-5,8-9,11,17,21H,6-7H2,1-3H3/t11-,17?/m1/s1

> <PUBCHEM_IUPAC_INCHIKEY>
JWAWPHBWPATRJQ-VCQTYVLVSA-N

> <PUBCHEM_XLOGP3_AA>
1.6

> <PUBCHEM_EXACT_MASS>
380.11073221

> <PUBCHEM_MOLECULAR_FORMULA>
C18H20O9

> <PUBCHEM_MOLECULAR_WEIGHT>
380.3

> <PUBCHEM_OPENEYE_CAN_SMILES>
COC1=CC(=C(C=C1C=CC(=O)OCCC2C(=O)C(C(=O)O2)O)OC)OC

> <PUBCHEM_OPENEYE_ISO_SMILES>
COC1=CC(=C(C=C1C=CC(=O)OCC[C@@H]2C(=O)C(C(=O)O2)O)OC)OC

> <PUBCHEM_CACTVS_TPSA>
118

> <PUBCHEM_MONOISOTOPIC_WEIGHT>
380.11073221

> <PUBCHEM_TOTAL_CHARGE>
0

> <PUBCHEM_HEAVY_ATOM_COUNT>
27

> <PUBCHEM_ATOM_DEF_STEREO_COUNT>
1

> <PUBCHEM_ATOM_UDEF_STEREO_COUNT>
1

> <PUBCHEM_BOND_DEF_STEREO_COUNT>
0

> <PUBCHEM_BOND_UDEF_STEREO_COUNT>
1

> <PUBCHEM_ISOTOPIC_ATOM_COUNT>
0

> <PUBCHEM_COMPONENT_COUNT>
1

> <PUBCHEM_CACTVS_TAUTO_COUNT>
-1

> <PUBCHEM_COORDINATE_TYPE>
1
5
255

> <PUBCHEM_BONDANNOTATIONS>
10  11  5
17  18  8
17  19  8
18  24  8
19  22  8
13  2  3
20  21  1
22  23  8
23  24  8

$$$$
