 
  -OEChem-10192103572D

 37 39  0     1  0  0  0  0  0999 V2000
    6.0682   -0.4254    0.0000 O   0  0  0  0  0  0  0  0  0  0  0  0
    7.8003    1.5746    0.0000 O   0  0  0  0  0  0  0  0  0  0  0  0
    6.0682    2.5746    0.0000 O   0  0  0  0  0  0  0  0  0  0  0  0
    6.9343   -1.9254    0.0000 O   0  0  0  0  0  0  0  0  0  0  0  0
    4.3198    2.6092    0.0000 O   0  0  0  0  0  0  0  0  0  0  0  0
    2.5381   -0.4495    0.0000 O   0  0  0  0  0  0  0  0  0  0  0  0
   10.3984   -1.9254    0.0000 O   0  0  0  0  0  0  0  0  0  0  0  0
    6.9343    0.0746    0.0000 C   0  0  3  0  0  0  0  0  0  0  0  0
    6.9343    1.0746    0.0000 C   0  0  3  0  0  0  0  0  0  0  0  0
    7.8003   -0.4254    0.0000 C   0  0  0  0  0  0  0  0  0  0  0  0
    6.0682    1.5746    0.0000 C   0  0  0  0  0  0  0  0  0  0  0  0
    5.2022    1.0746    0.0000 C   0  0  0  0  0  0  0  0  0  0  0  0
    5.2022    0.0746    0.0000 C   0  0  0  0  0  0  0  0  0  0  0  0
    7.8003   -1.4254    0.0000 C   0  0  0  0  0  0  0  0  0  0  0  0
    8.6663    0.0746    0.0000 C   0  0  0  0  0  0  0  0  0  0  0  0
    4.3083    1.6093    0.0000 C   0  0  0  0  0  0  0  0  0  0  0  0
    4.3083   -0.4601    0.0000 C   0  0  0  0  0  0  0  0  0  0  0  0
    8.6663   -1.9254    0.0000 C   0  0  0  0  0  0  0  0  0  0  0  0
    3.4022    1.0954    0.0000 C   0  0  0  0  0  0  0  0  0  0  0  0
    3.4022    0.0538    0.0000 C   0  0  0  0  0  0  0  0  0  0  0  0
    9.5323   -0.4254    0.0000 C   0  0  0  0  0  0  0  0  0  0  0  0
    9.5323   -1.4254    0.0000 C   0  0  0  0  0  0  0  0  0  0  0  0
    6.9343   -2.9254    0.0000 C   0  0  0  0  0  0  0  0  0  0  0  0
    6.9343   -0.5454    0.0000 H   0  0  0  0  0  0  0  0  0  0  0  0
    6.9343    1.6946    0.0000 H   0  0  0  0  0  0  0  0  0  0  0  0
    8.6663    0.6946    0.0000 H   0  0  0  0  0  0  0  0  0  0  0  0
    4.3154   -1.0800    0.0000 H   0  0  0  0  0  0  0  0  0  0  0  0
    7.8003    2.1946    0.0000 H   0  0  0  0  0  0  0  0  0  0  0  0
    8.6663   -2.5454    0.0000 H   0  0  0  0  0  0  0  0  0  0  0  0
    2.8665    1.4075    0.0000 H   0  0  0  0  0  0  0  0  0  0  0  0
   10.0693   -0.1154    0.0000 H   0  0  0  0  0  0  0  0  0  0  0  0
    3.7865    2.9254    0.0000 H   0  0  0  0  0  0  0  0  0  0  0  0
    6.3143   -2.9254    0.0000 H   0  0  0  0  0  0  0  0  0  0  0  0
    6.9343   -3.5454    0.0000 H   0  0  0  0  0  0  0  0  0  0  0  0
    7.5543   -2.9254    0.0000 H   0  0  0  0  0  0  0  0  0  0  0  0
    2.0000   -0.1416    0.0000 H   0  0  0  0  0  0  0  0  0  0  0  0
   10.9353   -1.6154    0.0000 H   0  0  0  0  0  0  0  0  0  0  0  0
  1  8  1  0  0  0  0
  1 13  1  0  0  0  0
  2  9  1  0  0  0  0
  2 28  1  0  0  0  0
  3 11  2  0  0  0  0
  4 14  1  0  0  0  0
  4 23  1  0  0  0  0
  5 16  1  0  0  0  0
  5 32  1  0  0  0  0
  6 20  1  0  0  0  0
  6 36  1  0  0  0  0
  7 22  1  0  0  0  0
  7 37  1  0  0  0  0
  8  9  1  0  0  0  0
  8 10  1  0  0  0  0
  8 24  1  0  0  0  0
  9 11  1  0  0  0  0
  9 25  1  0  0  0  0
 10 14  2  0  0  0  0
 10 15  1  0  0  0  0
 11 12  1  0  0  0  0
 12 13  1  0  0  0  0
 12 16  2  0  0  0  0
 13 17  2  0  0  0  0
 14 18  1  0  0  0  0
 15 21  2  0  0  0  0
 15 26  1  0  0  0  0
 16 19  1  0  0  0  0
 17 20  1  0  0  0  0
 17 27  1  0  0  0  0
 18 22  2  0  0  0  0
 18 29  1  0  0  0  0
 19 20  2  0  0  0  0
 19 30  1  0  0  0  0
 21 22  1  0  0  0  0
 21 31  1  0  0  0  0
 23 33  1  0  0  0  0
 23 34  1  0  0  0  0
 23 35  1  0  0  0  0
M  END
> <PUBCHEM_COMPOUND_CID>
127029358

> <PUBCHEM_COMPOUND_CANONICALIZED>
1

> <PUBCHEM_CACTVS_COMPLEXITY>
442

> <PUBCHEM_CACTVS_HBOND_ACCEPTOR>
7

> <PUBCHEM_CACTVS_HBOND_DONOR>
4

> <PUBCHEM_CACTVS_ROTATABLE_BOND>
2

> <PUBCHEM_CACTVS_SUBSKEYS>
AAADccB4OAAAAAAAAAAAAAAAAAAAAAAAAAA0YIAAAAAAAACRQAAAGgAACAAADBSgmAIyBoAABgCIAqBSAAICCAAkIAAIiAFGCMgNNzaGNRqCeWCl4BULuQfI7OzOIAAACAAIAABAAAAQABAAAAAAAAAAAA==

> <PUBCHEM_IUPAC_OPENEYE_NAME>
3,5,7-trihydroxy-2-(4-hydroxy-2-methoxy-phenyl)chroman-4-one

> <PUBCHEM_IUPAC_CAS_NAME>
3,5,7-trihydroxy-2-(4-hydroxy-2-methoxyphenyl)-3,4-dihydro-2H-1-benzopyran-4-one

> <PUBCHEM_IUPAC_NAME_MARKUP>
3,5,7-trihydroxy-2-(4-hydroxy-2-methoxyphenyl)-2,3-dihydrochromen-4-one

> <PUBCHEM_IUPAC_NAME>
3,5,7-trihydroxy-2-(4-hydroxy-2-methoxyphenyl)-2,3-dihydrochromen-4-one

> <PUBCHEM_IUPAC_SYSTEMATIC_NAME>
2-(2-methoxy-4-oxidanyl-phenyl)-3,5,7-tris(oxidanyl)-2,3-dihydrochromen-4-one

> <PUBCHEM_IUPAC_TRADITIONAL_NAME>
3,5,7-trihydroxy-2-(4-hydroxy-2-methoxy-phenyl)chroman-4-one

> <PUBCHEM_IUPAC_INCHI>
InChI=1S/C16H14O7/c1-22-11-5-7(17)2-3-9(11)16-15(21)14(20)13-10(19)4-8(18)6-12(13)23-16/h2-6,15-19,21H,1H3

> <PUBCHEM_IUPAC_INCHIKEY>
MDNDRVOVCSEAMC-UHFFFAOYSA-N

> <PUBCHEM_XLOGP3_AA>
1.8

> <PUBCHEM_EXACT_MASS>
318.07395278

> <PUBCHEM_MOLECULAR_FORMULA>
C16H14O7

> <PUBCHEM_MOLECULAR_WEIGHT>
318.28

> <PUBCHEM_OPENEYE_CAN_SMILES>
COC1=C(C=CC(=C1)O)C2C(C(=O)C3=C(C=C(C=C3O2)O)O)O

> <PUBCHEM_OPENEYE_ISO_SMILES>
COC1=C(C=CC(=C1)O)C2C(C(=O)C3=C(C=C(C=C3O2)O)O)O

> <PUBCHEM_CACTVS_TPSA>
116

> <PUBCHEM_MONOISOTOPIC_WEIGHT>
318.07395278

> <PUBCHEM_TOTAL_CHARGE>
0

> <PUBCHEM_HEAVY_ATOM_COUNT>
23

> <PUBCHEM_ATOM_DEF_STEREO_COUNT>
0

> <PUBCHEM_ATOM_UDEF_STEREO_COUNT>
2

> <PUBCHEM_BOND_DEF_STEREO_COUNT>
0

> <PUBCHEM_BOND_UDEF_STEREO_COUNT>
0

> <PUBCHEM_ISOTOPIC_ATOM_COUNT>
0

> <PUBCHEM_COMPONENT_COUNT>
1

> <PUBCHEM_CACTVS_TAUTO_COUNT>
-1

> <PUBCHEM_COORDINATE_TYPE>
1
5
255

> <PUBCHEM_BONDANNOTATIONS>
10  14  8
10  15  8
12  13  8
12  16  8
13  17  8
14  18  8
15  21  8
16  19  8
17  20  8
18  22  8
19  20  8
9  2  3
21  22  8
8  10  3

$$$$
