 
  -OEChem-10192103272D

 43 46  0     1  0  0  0  0  0999 V2000
    9.7082    0.7972    0.0000 O   0  0  0  0  0  0  0  0  0  0  0  0
    9.0532    3.4789    0.0000 O   0  0  0  0  0  0  0  0  0  0  0  0
    5.9670    1.2335    0.0000 O   0  0  0  0  0  0  0  0  0  0  0  0
    6.8671   -0.2908    0.0000 O   0  0  0  0  0  0  0  0  0  0  0  0
    5.1350   -0.2908    0.0000 O   0  0  0  0  0  0  0  0  0  0  0  0
    6.8671   -2.2908    0.0000 O   0  0  0  0  0  0  0  0  0  0  0  0
    5.1350   -3.2908    0.0000 O   0  0  0  0  0  0  0  0  0  0  0  0
    3.4030   -2.2908    0.0000 O   0  0  0  0  0  0  0  0  0  0  0  0
    2.5369   -0.7908    0.0000 O   0  0  0  0  0  0  0  0  0  0  0  0
    8.7145    0.9135    0.0000 C   0  0  1  0  0  0  0  0  0  0  0  0
    9.3116    1.7157    0.0000 C   0  0  2  0  0  0  0  0  0  0  0  0
    7.7671    1.2335    0.0000 C   0  0  2  0  0  0  0  0  0  0  0  0
    7.7787    2.2335    0.0000 C   0  0  2  0  0  0  0  0  0  0  0  0
    8.7333    2.5315    0.0000 C   0  0  2  0  0  0  0  0  0  0  0  0
    6.8671    0.7092    0.0000 C   0  0  1  0  0  0  0  0  0  0  0  0
    6.8910    2.7784    0.0000 C   0  0  0  0  0  0  0  0  0  0  0  0
    5.9790    2.2751    0.0000 C   0  0  0  0  0  0  0  0  0  0  0  0
    6.0010   -0.7908    0.0000 C   0  0  2  0  0  0  0  0  0  0  0  0
    6.0010   -1.7908    0.0000 C   0  0  1  0  0  0  0  0  0  0  0  0
    5.1350   -2.2908    0.0000 C   0  0  2  0  0  0  0  0  0  0  0  0
    4.2690   -1.7908    0.0000 C   0  0  1  0  0  0  0  0  0  0  0  0
    4.2690   -0.7908    0.0000 C   0  0  1  0  0  0  0  0  0  0  0  0
    3.4030   -0.2908    0.0000 C   0  0  0  0  0  0  0  0  0  0  0  0
    8.5786    0.3086    0.0000 H   0  0  0  0  0  0  0  0  0  0  0  0
    9.8521    2.0195    0.0000 H   0  0  0  0  0  0  0  0  0  0  0  0
    7.8527    0.3878    0.0000 H   0  0  0  0  0  0  0  0  0  0  0  0
    7.8838    3.0769    0.0000 H   0  0  0  0  0  0  0  0  0  0  0  0
    9.3467    2.6214    0.0000 H   0  0  0  0  0  0  0  0  0  0  0  0
    7.4046    0.4003    0.0000 H   0  0  0  0  0  0  0  0  0  0  0  0
    6.9053    3.3983    0.0000 H   0  0  0  0  0  0  0  0  0  0  0  0
    9.6611    3.6008    0.0000 H   0  0  0  0  0  0  0  0  0  0  0  0
    5.4470    2.5933    0.0000 H   0  0  0  0  0  0  0  0  0  0  0  0
    6.0010   -0.1708    0.0000 H   0  0  0  0  0  0  0  0  0  0  0  0
    6.0010   -2.4108    0.0000 H   0  0  0  0  0  0  0  0  0  0  0  0
    4.5981   -2.6008    0.0000 H   0  0  0  0  0  0  0  0  0  0  0  0
    4.2690   -2.4108    0.0000 H   0  0  0  0  0  0  0  0  0  0  0  0
    4.2690   -0.1708    0.0000 H   0  0  0  0  0  0  0  0  0  0  0  0
    3.8015    0.1842    0.0000 H   0  0  0  0  0  0  0  0  0  0  0  0
    3.0044    0.1842    0.0000 H   0  0  0  0  0  0  0  0  0  0  0  0
    6.8671   -2.9108    0.0000 H   0  0  0  0  0  0  0  0  0  0  0  0
    4.5981   -3.6008    0.0000 H   0  0  0  0  0  0  0  0  0  0  0  0
    3.4030   -2.9108    0.0000 H   0  0  0  0  0  0  0  0  0  0  0  0
    2.0000   -0.4808    0.0000 H   0  0  0  0  0  0  0  0  0  0  0  0
 10  1  1  6  0  0  0
 11  1  1  6  0  0  0
 14  2  1  6  0  0  0
  2 31  1  0  0  0  0
  3 15  1  0  0  0  0
  3 17  1  0  0  0  0
 15  4  1  6  0  0  0
 18  4  1  1  0  0  0
  5 18  1  0  0  0  0
  5 22  1  0  0  0  0
 19  6  1  6  0  0  0
  6 40  1  0  0  0  0
 20  7  1  1  0  0  0
  7 41  1  0  0  0  0
 21  8  1  6  0  0  0
  8 42  1  0  0  0  0
  9 23  1  0  0  0  0
  9 43  1  0  0  0  0
 10 11  1  0  0  0  0
 10 12  1  0  0  0  0
 10 24  1  0  0  0  0
 11 14  1  0  0  0  0
 11 25  1  0  0  0  0
 12 13  1  0  0  0  0
 12 15  1  0  0  0  0
 12 26  1  6  0  0  0
 13 14  1  0  0  0  0
 13 16  1  0  0  0  0
 13 27  1  6  0  0  0
 14 28  1  0  0  0  0
 15 29  1  0  0  0  0
 16 17  2  0  0  0  0
 16 30  1  0  0  0  0
 17 32  1  0  0  0  0
 18 19  1  0  0  0  0
 18 33  1  0  0  0  0
 19 20  1  0  0  0  0
 19 34  1  0  0  0  0
 20 21  1  0  0  0  0
 20 35  1  0  0  0  0
 21 22  1  0  0  0  0
 21 36  1  0  0  0  0
 22 23  1  1  0  0  0
 22 37  1  0  0  0  0
 23 38  1  0  0  0  0
 23 39  1  0  0  0  0
M  END
> <PUBCHEM_COMPOUND_CID>
102120031

> <PUBCHEM_COMPOUND_CANONICALIZED>
1

> <PUBCHEM_CACTVS_COMPLEXITY>
485

> <PUBCHEM_CACTVS_HBOND_ACCEPTOR>
9

> <PUBCHEM_CACTVS_HBOND_DONOR>
5

> <PUBCHEM_CACTVS_ROTATABLE_BOND>
3

> <PUBCHEM_CACTVS_SUBSKEYS>
AAADceBwPAAAAAAAAAAAAAAAEgAAAYAAAAAkSIAAAAAAAEAAAAAAGgAACAAADRSwgAMACAAABgCAACBCAAAACAAgIAAIAAAAAAgREAIAAQAiQAAFwAAHAAHA4CwOgAAAAAAAAAAAAAAAAAAAAIQADCAAAA==

> <PUBCHEM_IUPAC_OPENEYE_NAME>
(2S,3R,4S,5S,6R)-2-[[(1S,2R,4S,5S,6R,10S)-5-hydroxy-3,9-dioxatricyclo[4.4.0.02,4]dec-7-en-10-yl]oxy]-6-(hydroxymethyl)tetrahydropyran-3,4,5-triol

> <PUBCHEM_IUPAC_CAS_NAME>
(2S,3R,4S,5S,6R)-2-[[(1S,2R,4S,5S,6R,10S)-5-hydroxy-3,9-dioxatricyclo[4.4.0.02,4]dec-7-en-10-yl]oxy]-6-(hydroxymethyl)oxane-3,4,5-triol

> <PUBCHEM_IUPAC_NAME_MARKUP>
(2<I>S</I>,3<I>R</I>,4<I>S</I>,5<I>S</I>,6<I>R</I>)-2-[[(1<I>S</I>,2<I>R</I>,4<I>S</I>,5<I>S</I>,6<I>R</I>,10<I>S</I>)-5-hydroxy-3,9-dioxatricyclo[4.4.0.0<SUP>2,4</SUP>]dec-7-en-10-yl]oxy]-6-(hydroxymethyl)oxane-3,4,5-triol

> <PUBCHEM_IUPAC_NAME>
(2S,3R,4S,5S,6R)-2-[[(1S,2R,4S,5S,6R,10S)-5-hydroxy-3,9-dioxatricyclo[4.4.0.02,4]dec-7-en-10-yl]oxy]-6-(hydroxymethyl)oxane-3,4,5-triol

> <PUBCHEM_IUPAC_SYSTEMATIC_NAME>
(2R,3S,4S,5R,6S)-2-(hydroxymethyl)-6-[[(1S,2R,4S,5S,6R,10S)-5-oxidanyl-3,9-dioxatricyclo[4.4.0.02,4]dec-7-en-10-yl]oxy]oxane-3,4,5-triol

> <PUBCHEM_IUPAC_TRADITIONAL_NAME>
(2S,3R,4S,5S,6R)-2-[[(1S,2R,4S,5S,6R,10S)-5-hydroxy-3,9-dioxatricyclo[4.4.0.02,4]dec-7-en-10-yl]oxy]-6-methylol-tetrahydropyran-3,4,5-triol

> <PUBCHEM_IUPAC_INCHI>
InChI=1S/C14H20O9/c15-3-5-8(17)9(18)10(19)14(21-5)23-13-6-4(1-2-20-13)7(16)12-11(6)22-12/h1-2,4-19H,3H2/t4-,5-,6+,7+,8-,9+,10-,11-,12+,13+,14+/m1/s1

> <PUBCHEM_IUPAC_INCHIKEY>
DRXHHSWFGHCUGX-IMOIEGEGSA-N

> <PUBCHEM_XLOGP3_AA>
-2.4

> <PUBCHEM_EXACT_MASS>
332.11073221

> <PUBCHEM_MOLECULAR_FORMULA>
C14H20O9

> <PUBCHEM_MOLECULAR_WEIGHT>
332.30

> <PUBCHEM_OPENEYE_CAN_SMILES>
C1=COC(C2C1C(C3C2O3)O)OC4C(C(C(C(O4)CO)O)O)O

> <PUBCHEM_OPENEYE_ISO_SMILES>
C1=CO[C@H]([C@H]2[C@@H]1[C@@H]([C@H]3[C@@H]2O3)O)O[C@H]4[C@@H]([C@H]([C@@H]([C@H](O4)CO)O)O)O

> <PUBCHEM_CACTVS_TPSA>
141

> <PUBCHEM_MONOISOTOPIC_WEIGHT>
332.11073221

> <PUBCHEM_TOTAL_CHARGE>
0

> <PUBCHEM_HEAVY_ATOM_COUNT>
23

> <PUBCHEM_ATOM_DEF_STEREO_COUNT>
11

> <PUBCHEM_ATOM_UDEF_STEREO_COUNT>
0

> <PUBCHEM_BOND_DEF_STEREO_COUNT>
0

> <PUBCHEM_BOND_UDEF_STEREO_COUNT>
0

> <PUBCHEM_ISOTOPIC_ATOM_COUNT>
0

> <PUBCHEM_COMPONENT_COUNT>
1

> <PUBCHEM_CACTVS_TAUTO_COUNT>
-1

> <PUBCHEM_COORDINATE_TYPE>
1
5
255

> <PUBCHEM_BONDANNOTATIONS>
10  1  6
11  1  6
12  26  6
13  27  6
14  2  6
22  23  5
15  4  6
18  4  5
19  6  6
20  7  5
21  8  6

$$$$
