 
  -OEChem-10192104242D

 74 73  0     0  0  0  0  0  0999 V2000
   10.6603    0.7500    0.0000 O   0  0  0  0  0  0  0  0  0  0  0  0
    9.7942   -0.7500    0.0000 O   0  0  0  0  0  0  0  0  0  0  0  0
   13.2583    0.2500    0.0000 O   0  0  0  0  0  0  0  0  0  0  0  0
   15.8564    0.7500    0.0000 O   0  0  0  0  0  0  0  0  0  0  0  0
   18.4545    0.2500    0.0000 O   0  0  0  0  0  0  0  0  0  0  0  0
   21.0526    0.7500    0.0000 O   0  0  0  0  0  0  0  0  0  0  0  0
   23.6506    0.2500    0.0000 O   0  0  0  0  0  0  0  0  0  0  0  0
   26.2487    0.7500    0.0000 O   0  0  0  0  0  0  0  0  0  0  0  0
    5.4641    0.7500    0.0000 C   0  0  0  0  0  0  0  0  0  0  0  0
    6.3301    0.2500    0.0000 C   0  0  0  0  0  0  0  0  0  0  0  0
    4.5981    0.2500    0.0000 C   0  0  0  0  0  0  0  0  0  0  0  0
    7.1962    0.7500    0.0000 C   0  0  0  0  0  0  0  0  0  0  0  0
    3.7320    0.7500    0.0000 C   0  0  0  0  0  0  0  0  0  0  0  0
    8.0622    0.2500    0.0000 C   0  0  0  0  0  0  0  0  0  0  0  0
    2.8660    0.2500    0.0000 C   0  0  0  0  0  0  0  0  0  0  0  0
    8.9282    0.7500    0.0000 C   0  0  0  0  0  0  0  0  0  0  0  0
    2.0000    0.7500    0.0000 C   0  0  0  0  0  0  0  0  0  0  0  0
    9.7942    0.2500    0.0000 C   0  0  0  0  0  0  0  0  0  0  0  0
   11.5263    0.2500    0.0000 C   0  0  0  0  0  0  0  0  0  0  0  0
   12.3923    0.7500    0.0000 C   0  0  0  0  0  0  0  0  0  0  0  0
   14.1244    0.7500    0.0000 C   0  0  0  0  0  0  0  0  0  0  0  0
   14.9904    0.2500    0.0000 C   0  0  0  0  0  0  0  0  0  0  0  0
   16.7224    0.2500    0.0000 C   0  0  0  0  0  0  0  0  0  0  0  0
   17.5885    0.7500    0.0000 C   0  0  0  0  0  0  0  0  0  0  0  0
   19.3205    0.7500    0.0000 C   0  0  0  0  0  0  0  0  0  0  0  0
   20.1865    0.2500    0.0000 C   0  0  0  0  0  0  0  0  0  0  0  0
   21.9186    0.2500    0.0000 C   0  0  0  0  0  0  0  0  0  0  0  0
   22.7846    0.7500    0.0000 C   0  0  0  0  0  0  0  0  0  0  0  0
   24.5167    0.7500    0.0000 C   0  0  0  0  0  0  0  0  0  0  0  0
   25.3827    0.2500    0.0000 C   0  0  0  0  0  0  0  0  0  0  0  0
    5.8626    1.2250    0.0000 H   0  0  0  0  0  0  0  0  0  0  0  0
    5.0656    1.2250    0.0000 H   0  0  0  0  0  0  0  0  0  0  0  0
    5.9316   -0.2249    0.0000 H   0  0  0  0  0  0  0  0  0  0  0  0
    6.7287   -0.2249    0.0000 H   0  0  0  0  0  0  0  0  0  0  0  0
    4.1996   -0.2249    0.0000 H   0  0  0  0  0  0  0  0  0  0  0  0
    4.9966   -0.2249    0.0000 H   0  0  0  0  0  0  0  0  0  0  0  0
    7.5947    1.2250    0.0000 H   0  0  0  0  0  0  0  0  0  0  0  0
    6.7976    1.2250    0.0000 H   0  0  0  0  0  0  0  0  0  0  0  0
    4.1306    1.2250    0.0000 H   0  0  0  0  0  0  0  0  0  0  0  0
    3.3335    1.2250    0.0000 H   0  0  0  0  0  0  0  0  0  0  0  0
    7.6636   -0.2249    0.0000 H   0  0  0  0  0  0  0  0  0  0  0  0
    8.4607   -0.2249    0.0000 H   0  0  0  0  0  0  0  0  0  0  0  0
    2.4675   -0.2249    0.0000 H   0  0  0  0  0  0  0  0  0  0  0  0
    3.2646   -0.2249    0.0000 H   0  0  0  0  0  0  0  0  0  0  0  0
    9.3267    1.2250    0.0000 H   0  0  0  0  0  0  0  0  0  0  0  0
    8.5297    1.2250    0.0000 H   0  0  0  0  0  0  0  0  0  0  0  0
    2.3100    1.2869    0.0000 H   0  0  0  0  0  0  0  0  0  0  0  0
    1.4631    1.0600    0.0000 H   0  0  0  0  0  0  0  0  0  0  0  0
    1.6900    0.2131    0.0000 H   0  0  0  0  0  0  0  0  0  0  0  0
   11.1278   -0.2249    0.0000 H   0  0  0  0  0  0  0  0  0  0  0  0
   11.9248   -0.2249    0.0000 H   0  0  0  0  0  0  0  0  0  0  0  0
   12.7908    1.2250    0.0000 H   0  0  0  0  0  0  0  0  0  0  0  0
   11.9938    1.2250    0.0000 H   0  0  0  0  0  0  0  0  0  0  0  0
   14.5229    1.2250    0.0000 H   0  0  0  0  0  0  0  0  0  0  0  0
   13.7258    1.2250    0.0000 H   0  0  0  0  0  0  0  0  0  0  0  0
   14.5919   -0.2249    0.0000 H   0  0  0  0  0  0  0  0  0  0  0  0
   15.3889   -0.2249    0.0000 H   0  0  0  0  0  0  0  0  0  0  0  0
   16.3239   -0.2249    0.0000 H   0  0  0  0  0  0  0  0  0  0  0  0
   17.1210   -0.2249    0.0000 H   0  0  0  0  0  0  0  0  0  0  0  0
   17.9870    1.2250    0.0000 H   0  0  0  0  0  0  0  0  0  0  0  0
   17.1899    1.2250    0.0000 H   0  0  0  0  0  0  0  0  0  0  0  0
   19.7190    1.2250    0.0000 H   0  0  0  0  0  0  0  0  0  0  0  0
   18.9220    1.2250    0.0000 H   0  0  0  0  0  0  0  0  0  0  0  0
   19.7880   -0.2249    0.0000 H   0  0  0  0  0  0  0  0  0  0  0  0
   20.5851   -0.2249    0.0000 H   0  0  0  0  0  0  0  0  0  0  0  0
   21.5201   -0.2249    0.0000 H   0  0  0  0  0  0  0  0  0  0  0  0
   22.3171   -0.2249    0.0000 H   0  0  0  0  0  0  0  0  0  0  0  0
   23.1831    1.2250    0.0000 H   0  0  0  0  0  0  0  0  0  0  0  0
   22.3861    1.2250    0.0000 H   0  0  0  0  0  0  0  0  0  0  0  0
   24.9152    1.2250    0.0000 H   0  0  0  0  0  0  0  0  0  0  0  0
   24.1181    1.2250    0.0000 H   0  0  0  0  0  0  0  0  0  0  0  0
   24.9842   -0.2249    0.0000 H   0  0  0  0  0  0  0  0  0  0  0  0
   25.7812   -0.2249    0.0000 H   0  0  0  0  0  0  0  0  0  0  0  0
   26.7856    0.4400    0.0000 H   0  0  0  0  0  0  0  0  0  0  0  0
  1 18  1  0  0  0  0
  1 19  1  0  0  0  0
  2 18  2  0  0  0  0
  3 20  1  0  0  0  0
  3 21  1  0  0  0  0
  4 22  1  0  0  0  0
  4 23  1  0  0  0  0
  5 24  1  0  0  0  0
  5 25  1  0  0  0  0
  6 26  1  0  0  0  0
  6 27  1  0  0  0  0
  7 28  1  0  0  0  0
  7 29  1  0  0  0  0
  8 30  1  0  0  0  0
  8 74  1  0  0  0  0
  9 10  1  0  0  0  0
  9 11  1  0  0  0  0
  9 31  1  0  0  0  0
  9 32  1  0  0  0  0
 10 12  1  0  0  0  0
 10 33  1  0  0  0  0
 10 34  1  0  0  0  0
 11 13  1  0  0  0  0
 11 35  1  0  0  0  0
 11 36  1  0  0  0  0
 12 14  1  0  0  0  0
 12 37  1  0  0  0  0
 12 38  1  0  0  0  0
 13 15  1  0  0  0  0
 13 39  1  0  0  0  0
 13 40  1  0  0  0  0
 14 16  1  0  0  0  0
 14 41  1  0  0  0  0
 14 42  1  0  0  0  0
 15 17  1  0  0  0  0
 15 43  1  0  0  0  0
 15 44  1  0  0  0  0
 16 18  1  0  0  0  0
 16 45  1  0  0  0  0
 16 46  1  0  0  0  0
 17 47  1  0  0  0  0
 17 48  1  0  0  0  0
 17 49  1  0  0  0  0
 19 20  1  0  0  0  0
 19 50  1  0  0  0  0
 19 51  1  0  0  0  0
 20 52  1  0  0  0  0
 20 53  1  0  0  0  0
 21 22  1  0  0  0  0
 21 54  1  0  0  0  0
 21 55  1  0  0  0  0
 22 56  1  0  0  0  0
 22 57  1  0  0  0  0
 23 24  1  0  0  0  0
 23 58  1  0  0  0  0
 23 59  1  0  0  0  0
 24 60  1  0  0  0  0
 24 61  1  0  0  0  0
 25 26  1  0  0  0  0
 25 62  1  0  0  0  0
 25 63  1  0  0  0  0
 26 64  1  0  0  0  0
 26 65  1  0  0  0  0
 27 28  1  0  0  0  0
 27 66  1  0  0  0  0
 27 67  1  0  0  0  0
 28 68  1  0  0  0  0
 28 69  1  0  0  0  0
 29 30  1  0  0  0  0
 29 70  1  0  0  0  0
 29 71  1  0  0  0  0
 30 72  1  0  0  0  0
 30 73  1  0  0  0  0
M  END
> <PUBCHEM_COMPOUND_CID>
85978646

> <PUBCHEM_COMPOUND_CANONICALIZED>
1

> <PUBCHEM_CACTVS_COMPLEXITY>
341

> <PUBCHEM_CACTVS_HBOND_ACCEPTOR>
8

> <PUBCHEM_CACTVS_HBOND_DONOR>
1

> <PUBCHEM_CACTVS_ROTATABLE_BOND>
26

> <PUBCHEM_CACTVS_SUBSKEYS>
AAADcfB4PAAAAAAAAAAAAAAAAAAAAAAAAAAAAAAAAAAAAAAAAAAAGgAACAAACACggAICCAAABgAIAACQCAAAAAAAAAAAAAEAAAABEBIAAAACAAAEAAADAAGIyKCAAAAAAAAAAAAAAAAAAAAAAAAAAAAAAA==

> <PUBCHEM_IUPAC_OPENEYE_NAME>
2-[2-[2-[2-[2-(2-hydroxyethoxy)ethoxy]ethoxy]ethoxy]ethoxy]ethyl decanoate

> <PUBCHEM_IUPAC_CAS_NAME>
decanoic acid 2-[2-[2-[2-[2-(2-hydroxyethoxy)ethoxy]ethoxy]ethoxy]ethoxy]ethyl ester

> <PUBCHEM_IUPAC_NAME_MARKUP>
2-[2-[2-[2-[2-(2-hydroxyethoxy)ethoxy]ethoxy]ethoxy]ethoxy]ethyl decanoate

> <PUBCHEM_IUPAC_NAME>
2-[2-[2-[2-[2-(2-hydroxyethoxy)ethoxy]ethoxy]ethoxy]ethoxy]ethyl decanoate

> <PUBCHEM_IUPAC_SYSTEMATIC_NAME>
2-[2-[2-[2-[2-(2-hydroxyethyloxy)ethoxy]ethoxy]ethoxy]ethoxy]ethyl decanoate

> <PUBCHEM_IUPAC_TRADITIONAL_NAME>
capric acid 2-[2-[2-[2-[2-(2-hydroxyethoxy)ethoxy]ethoxy]ethoxy]ethoxy]ethyl ester

> <PUBCHEM_IUPAC_INCHI>
InChI=1S/C22H44O8/c1-2-3-4-5-6-7-8-9-22(24)30-21-20-29-19-18-28-17-16-27-15-14-26-13-12-25-11-10-23/h23H,2-21H2,1H3

> <PUBCHEM_IUPAC_INCHIKEY>
NBKJIDQTILVPCI-UHFFFAOYSA-N

> <PUBCHEM_XLOGP3_AA>
2.8

> <PUBCHEM_EXACT_MASS>
436.30361836

> <PUBCHEM_MOLECULAR_FORMULA>
C22H44O8

> <PUBCHEM_MOLECULAR_WEIGHT>
436.6

> <PUBCHEM_OPENEYE_CAN_SMILES>
CCCCCCCCCC(=O)OCCOCCOCCOCCOCCOCCO

> <PUBCHEM_OPENEYE_ISO_SMILES>
CCCCCCCCCC(=O)OCCOCCOCCOCCOCCOCCO

> <PUBCHEM_CACTVS_TPSA>
92.7

> <PUBCHEM_MONOISOTOPIC_WEIGHT>
436.30361836

> <PUBCHEM_TOTAL_CHARGE>
0

> <PUBCHEM_HEAVY_ATOM_COUNT>
30

> <PUBCHEM_ATOM_DEF_STEREO_COUNT>
0

> <PUBCHEM_ATOM_UDEF_STEREO_COUNT>
0

> <PUBCHEM_BOND_DEF_STEREO_COUNT>
0

> <PUBCHEM_BOND_UDEF_STEREO_COUNT>
0

> <PUBCHEM_ISOTOPIC_ATOM_COUNT>
0

> <PUBCHEM_COMPONENT_COUNT>
1

> <PUBCHEM_CACTVS_TAUTO_COUNT>
-1

> <PUBCHEM_COORDINATE_TYPE>
1
5
255

$$$$
