 
  -OEChem-10192103562D

 62 65  0     0  0  0  0  0  0999 V2000
    6.3301   -3.2758    0.0000 O   0  0  0  0  0  0  0  0  0  0  0  0
    2.8660   -6.2758    0.0000 O   0  0  0  0  0  0  0  0  0  0  0  0
    4.5981   -7.2758    0.0000 O   0  0  0  0  0  0  0  0  0  0  0  0
    4.2399    6.6532    0.0000 O   0  0  0  0  0  0  0  0  0  0  0  0
    4.4210    4.9307    0.0000 O   0  0  0  0  0  0  0  0  0  0  0  0
    4.9641   -0.2370    0.0000 N   0  0  0  0  0  0  0  0  0  0  0  0
    6.2731   -1.1881    0.0000 N   0  0  0  0  0  0  0  0  0  0  0  0
    6.0033    4.2262    0.0000 N   0  0  0  0  0  0  0  0  0  0  0  0
    4.5981   -3.2758    0.0000 N   0  0  0  0  0  0  0  0  0  0  0  0
    4.3763    0.5720    0.0000 C   0  0  0  0  0  0  0  0  0  0  0  0
    4.7830    1.4856    0.0000 C   0  0  0  0  0  0  0  0  0  0  0  0
    4.6551   -1.1881    0.0000 C   0  0  0  0  0  0  0  0  0  0  0  0
    5.7776    1.5901    0.0000 C   0  0  0  0  0  0  0  0  0  0  0  0
    4.1953    2.2946    0.0000 C   0  0  0  0  0  0  0  0  0  0  0  0
    5.5965    3.3126    0.0000 C   0  0  0  0  0  0  0  0  0  0  0  0
    5.4641   -1.7758    0.0000 C   0  0  0  0  0  0  0  0  0  0  0  0
    5.9641   -0.2370    0.0000 C   0  0  0  0  0  0  0  0  0  0  0  0
    6.1843    2.5036    0.0000 C   0  0  0  0  0  0  0  0  0  0  0  0
    4.6020    3.2081    0.0000 C   0  0  0  0  0  0  0  0  0  0  0  0
    5.4641   -2.7758    0.0000 C   0  0  0  0  0  0  0  0  0  0  0  0
    4.5981   -4.2758    0.0000 C   0  0  0  0  0  0  0  0  0  0  0  0
    5.4155    5.0352    0.0000 C   0  0  0  0  0  0  0  0  0  0  0  0
    5.8222    5.9488    0.0000 C   0  0  0  0  0  0  0  0  0  0  0  0
    3.7320   -4.7758    0.0000 C   0  0  0  0  0  0  0  0  0  0  0  0
    5.4641   -4.7758    0.0000 C   0  0  0  0  0  0  0  0  0  0  0  0
    3.7320   -5.7758    0.0000 C   0  0  0  0  0  0  0  0  0  0  0  0
    4.5981   -6.2758    0.0000 C   0  0  0  0  0  0  0  0  0  0  0  0
    5.2344    6.7578    0.0000 C   0  0  0  0  0  0  0  0  0  0  0  0
    5.4641   -5.7758    0.0000 C   0  0  0  0  0  0  0  0  0  0  0  0
    6.8167    6.0533    0.0000 C   0  0  0  0  0  0  0  0  0  0  0  0
    5.6412    7.6713    0.0000 C   0  0  0  0  0  0  0  0  0  0  0  0
    7.2235    6.9668    0.0000 C   0  0  0  0  0  0  0  0  0  0  0  0
    6.6357    7.7758    0.0000 C   0  0  0  0  0  0  0  0  0  0  0  0
    2.0000   -5.7758    0.0000 C   0  0  0  0  0  0  0  0  0  0  0  0
    5.4641   -7.7758    0.0000 C   0  0  0  0  0  0  0  0  0  0  0  0
    3.6521    7.4623    0.0000 C   0  0  0  0  0  0  0  0  0  0  0  0
    3.8623    0.9187    0.0000 H   0  0  0  0  0  0  0  0  0  0  0  0
    3.9456    0.1260    0.0000 H   0  0  0  0  0  0  0  0  0  0  0  0
    4.0654   -1.3796    0.0000 H   0  0  0  0  0  0  0  0  0  0  0  0
    6.1420    1.0885    0.0000 H   0  0  0  0  0  0  0  0  0  0  0  0
    3.5787    2.2298    0.0000 H   0  0  0  0  0  0  0  0  0  0  0  0
    6.3285    0.2646    0.0000 H   0  0  0  0  0  0  0  0  0  0  0  0
    6.8009    2.5684    0.0000 H   0  0  0  0  0  0  0  0  0  0  0  0
    4.2376    3.7097    0.0000 H   0  0  0  0  0  0  0  0  0  0  0  0
    6.6199    4.2910    0.0000 H   0  0  0  0  0  0  0  0  0  0  0  0
    4.0611   -2.9658    0.0000 H   0  0  0  0  0  0  0  0  0  0  0  0
    3.1951   -4.4658    0.0000 H   0  0  0  0  0  0  0  0  0  0  0  0
    6.0010   -4.4658    0.0000 H   0  0  0  0  0  0  0  0  0  0  0  0
    6.0010   -6.0858    0.0000 H   0  0  0  0  0  0  0  0  0  0  0  0
    7.1812    5.5517    0.0000 H   0  0  0  0  0  0  0  0  0  0  0  0
    5.2767    8.1729    0.0000 H   0  0  0  0  0  0  0  0  0  0  0  0
    7.8401    7.0316    0.0000 H   0  0  0  0  0  0  0  0  0  0  0  0
    6.8879    8.3422    0.0000 H   0  0  0  0  0  0  0  0  0  0  0  0
    2.3100   -5.2389    0.0000 H   0  0  0  0  0  0  0  0  0  0  0  0
    1.4631   -5.4658    0.0000 H   0  0  0  0  0  0  0  0  0  0  0  0
    1.6900   -6.3128    0.0000 H   0  0  0  0  0  0  0  0  0  0  0  0
    5.1541   -8.3128    0.0000 H   0  0  0  0  0  0  0  0  0  0  0  0
    6.0010   -8.0858    0.0000 H   0  0  0  0  0  0  0  0  0  0  0  0
    5.7741   -7.2389    0.0000 H   0  0  0  0  0  0  0  0  0  0  0  0
    4.1537    7.8267    0.0000 H   0  0  0  0  0  0  0  0  0  0  0  0
    3.2877    7.9638    0.0000 H   0  0  0  0  0  0  0  0  0  0  0  0
    3.1505    7.0978    0.0000 H   0  0  0  0  0  0  0  0  0  0  0  0
  1 20  2  0  0  0  0
  2 26  1  0  0  0  0
  2 34  1  0  0  0  0
  3 27  1  0  0  0  0
  3 35  1  0  0  0  0
  4 28  1  0  0  0  0
  4 36  1  0  0  0  0
  5 22  2  0  0  0  0
  6 10  1  0  0  0  0
  6 12  1  0  0  0  0
  6 17  1  0  0  0  0
  7 16  1  0  0  0  0
  7 17  2  0  0  0  0
  8 15  1  0  0  0  0
  8 22  1  0  0  0  0
  8 45  1  0  0  0  0
  9 20  1  0  0  0  0
  9 21  1  0  0  0  0
  9 46  1  0  0  0  0
 10 11  1  0  0  0  0
 10 37  1  0  0  0  0
 10 38  1  0  0  0  0
 11 13  2  0  0  0  0
 11 14  1  0  0  0  0
 12 16  2  0  0  0  0
 12 39  1  0  0  0  0
 13 18  1  0  0  0  0
 13 40  1  0  0  0  0
 14 19  2  0  0  0  0
 14 41  1  0  0  0  0
 15 18  2  0  0  0  0
 15 19  1  0  0  0  0
 16 20  1  0  0  0  0
 17 42  1  0  0  0  0
 18 43  1  0  0  0  0
 19 44  1  0  0  0  0
 21 24  2  0  0  0  0
 21 25  1  0  0  0  0
 22 23  1  0  0  0  0
 23 28  1  0  0  0  0
 23 30  2  0  0  0  0
 24 26  1  0  0  0  0
 24 47  1  0  0  0  0
 25 29  2  0  0  0  0
 25 48  1  0  0  0  0
 26 27  2  0  0  0  0
 27 29  1  0  0  0  0
 28 31  2  0  0  0  0
 29 49  1  0  0  0  0
 30 32  1  0  0  0  0
 30 50  1  0  0  0  0
 31 33  1  0  0  0  0
 31 51  1  0  0  0  0
 32 33  2  0  0  0  0
 32 52  1  0  0  0  0
 33 53  1  0  0  0  0
 34 54  1  0  0  0  0
 34 55  1  0  0  0  0
 34 56  1  0  0  0  0
 35 57  1  0  0  0  0
 35 58  1  0  0  0  0
 35 59  1  0  0  0  0
 36 60  1  0  0  0  0
 36 61  1  0  0  0  0
 36 62  1  0  0  0  0
M  END
> <PUBCHEM_COMPOUND_CID>
49668676

> <PUBCHEM_COMPOUND_CANONICALIZED>
1

> <PUBCHEM_CACTVS_COMPLEXITY>
716

> <PUBCHEM_CACTVS_HBOND_ACCEPTOR>
6

> <PUBCHEM_CACTVS_HBOND_DONOR>
2

> <PUBCHEM_CACTVS_ROTATABLE_BOND>
9

> <PUBCHEM_CACTVS_SUBSKEYS>
AAADceB7uAAAAAAAAAAAAAAAAAAAAWAAAAAwYMAAAAAAAAAB1AAAHgAQAAAADAzBngY/1pfMFACoAzV3dACCiC03MqAJ2AG+/MiNbj7E/buUMepu9BvK6ee42COOCEAAAgAIQAAQgAAEABCAAAAAAAAAAA==

> <PUBCHEM_IUPAC_OPENEYE_NAME>
N-(3,4-dimethoxyphenyl)-1-[[4-[(2-methoxybenzoyl)amino]phenyl]methyl]imidazole-4-carboxamide

> <PUBCHEM_IUPAC_CAS_NAME>
N-(3,4-dimethoxyphenyl)-1-[[4-[[(2-methoxyphenyl)-oxomethyl]amino]phenyl]methyl]-4-imidazolecarboxamide

> <PUBCHEM_IUPAC_NAME_MARKUP>
<I>N</I>-(3,4-dimethoxyphenyl)-1-[[4-[(2-methoxybenzoyl)amino]phenyl]methyl]imidazole-4-carboxamide

> <PUBCHEM_IUPAC_NAME>
N-(3,4-dimethoxyphenyl)-1-[[4-[(2-methoxybenzoyl)amino]phenyl]methyl]imidazole-4-carboxamide

> <PUBCHEM_IUPAC_SYSTEMATIC_NAME>
N-(3,4-dimethoxyphenyl)-1-[[4-[(2-methoxyphenyl)carbonylamino]phenyl]methyl]imidazole-4-carboxamide

> <PUBCHEM_IUPAC_TRADITIONAL_NAME>
N-(3,4-dimethoxyphenyl)-1-[4-(o-anisoylamino)benzyl]imidazole-4-carboxamide

> <PUBCHEM_IUPAC_INCHI>
InChI=1S/C27H26N4O5/c1-34-23-7-5-4-6-21(23)26(32)29-19-10-8-18(9-11-19)15-31-16-22(28-17-31)27(33)30-20-12-13-24(35-2)25(14-20)36-3/h4-14,16-17H,15H2,1-3H3,(H,29,32)(H,30,33)

> <PUBCHEM_IUPAC_INCHIKEY>
KQJDSXBYLRRTCW-UHFFFAOYSA-N

> <PUBCHEM_XLOGP3_AA>
3.5

> <PUBCHEM_EXACT_MASS>
486.19031994

> <PUBCHEM_MOLECULAR_FORMULA>
C27H26N4O5

> <PUBCHEM_MOLECULAR_WEIGHT>
486.5

> <PUBCHEM_OPENEYE_CAN_SMILES>
COC1=C(C=C(C=C1)NC(=O)C2=CN(C=N2)CC3=CC=C(C=C3)NC(=O)C4=CC=CC=C4OC)OC

> <PUBCHEM_OPENEYE_ISO_SMILES>
COC1=C(C=C(C=C1)NC(=O)C2=CN(C=N2)CC3=CC=C(C=C3)NC(=O)C4=CC=CC=C4OC)OC

> <PUBCHEM_CACTVS_TPSA>
104

> <PUBCHEM_MONOISOTOPIC_WEIGHT>
486.19031994

> <PUBCHEM_TOTAL_CHARGE>
0

> <PUBCHEM_HEAVY_ATOM_COUNT>
36

> <PUBCHEM_ATOM_DEF_STEREO_COUNT>
0

> <PUBCHEM_ATOM_UDEF_STEREO_COUNT>
0

> <PUBCHEM_BOND_DEF_STEREO_COUNT>
0

> <PUBCHEM_BOND_UDEF_STEREO_COUNT>
0

> <PUBCHEM_ISOTOPIC_ATOM_COUNT>
0

> <PUBCHEM_COMPONENT_COUNT>
1

> <PUBCHEM_CACTVS_TAUTO_COUNT>
-1

> <PUBCHEM_COORDINATE_TYPE>
1
5
255

> <PUBCHEM_BONDANNOTATIONS>
11  13  8
11  14  8
12  16  8
13  18  8
14  19  8
15  18  8
15  19  8
21  24  8
21  25  8
23  28  8
23  30  8
24  26  8
25  29  8
26  27  8
27  29  8
28  31  8
30  32  8
31  33  8
32  33  8
6  12  8
6  17  8
7  16  8
7  17  8

$$$$
