 
  -OEChem-10192103582D

 26 25  0     1  0  0  0  0  0999 V2000
    4.2690   -1.0950    0.0000 O   0  0  0  0  0  0  0  0  0  0  0  0
    5.1350    1.4050    0.0000 O   0  0  0  0  0  0  0  0  0  0  0  0
    2.5369   -0.0950    0.0000 O   0  0  0  0  0  0  0  0  0  0  0  0
    3.4030    1.4050    0.0000 O   0  0  0  0  0  0  0  0  0  0  0  0
    6.8671    0.4050    0.0000 C   0  0  0  0  0  0  0  0  0  0  0  0
    7.7331   -0.0950    0.0000 C   0  0  0  0  0  0  0  0  0  0  0  0
    6.0010   -0.0950    0.0000 C   0  0  0  0  0  0  0  0  0  0  0  0
    8.5991    0.4050    0.0000 C   0  0  0  0  0  0  0  0  0  0  0  0
    5.1350    0.4050    0.0000 C   0  0  0  0  0  0  0  0  0  0  0  0
    4.2690   -0.0950    0.0000 C   0  0  3  0  0  0  0  0  0  0  0  0
    9.4651   -0.0950    0.0000 C   0  0  0  0  0  0  0  0  0  0  0  0
    3.4030    0.4050    0.0000 C   0  0  0  0  0  0  0  0  0  0  0  0
    7.2656    0.8799    0.0000 H   0  0  0  0  0  0  0  0  0  0  0  0
    6.4685    0.8799    0.0000 H   0  0  0  0  0  0  0  0  0  0  0  0
    7.3346   -0.5699    0.0000 H   0  0  0  0  0  0  0  0  0  0  0  0
    8.1316   -0.5699    0.0000 H   0  0  0  0  0  0  0  0  0  0  0  0
    5.6025   -0.5699    0.0000 H   0  0  0  0  0  0  0  0  0  0  0  0
    6.3996   -0.5699    0.0000 H   0  0  0  0  0  0  0  0  0  0  0  0
    8.9976    0.8799    0.0000 H   0  0  0  0  0  0  0  0  0  0  0  0
    8.2006    0.8799    0.0000 H   0  0  0  0  0  0  0  0  0  0  0  0
    4.8059   -0.4050    0.0000 H   0  0  0  0  0  0  0  0  0  0  0  0
    9.1551   -0.6319    0.0000 H   0  0  0  0  0  0  0  0  0  0  0  0
   10.0021   -0.4050    0.0000 H   0  0  0  0  0  0  0  0  0  0  0  0
    9.7751    0.4419    0.0000 H   0  0  0  0  0  0  0  0  0  0  0  0
    3.7320   -1.4050    0.0000 H   0  0  0  0  0  0  0  0  0  0  0  0
    2.0000    0.2150    0.0000 H   0  0  0  0  0  0  0  0  0  0  0  0
  1 10  1  0  0  0  0
  1 25  1  0  0  0  0
  2  9  2  0  0  0  0
  3 12  1  0  0  0  0
  3 26  1  0  0  0  0
  4 12  2  0  0  0  0
  5  6  1  0  0  0  0
  5  7  1  0  0  0  0
  5 13  1  0  0  0  0
  5 14  1  0  0  0  0
  6  8  1  0  0  0  0
  6 15  1  0  0  0  0
  6 16  1  0  0  0  0
  7  9  1  0  0  0  0
  7 17  1  0  0  0  0
  7 18  1  0  0  0  0
  8 11  1  0  0  0  0
  8 19  1  0  0  0  0
  8 20  1  0  0  0  0
  9 10  1  0  0  0  0
 10 12  1  0  0  0  0
 10 21  1  0  0  0  0
 11 22  1  0  0  0  0
 11 23  1  0  0  0  0
 11 24  1  0  0  0  0
M  END
> <PUBCHEM_COMPOUND_CID>
22760311

> <PUBCHEM_COMPOUND_CANONICALIZED>
1

> <PUBCHEM_CACTVS_COMPLEXITY>
164

> <PUBCHEM_CACTVS_HBOND_ACCEPTOR>
4

> <PUBCHEM_CACTVS_HBOND_DONOR>
2

> <PUBCHEM_CACTVS_ROTATABLE_BOND>
6

> <PUBCHEM_CACTVS_SUBSKEYS>
AAADccBwOAAAAAAAAAAAAAAAAAAAAAAAAAAAAAAAAAAAAAAAAAAAGgAACAAACBSggAICCAAAAgAIAICQCAIAAAAAAAAAAAFAAAABEBYIAAAAQAAEIAABAAGIyKCAAAAAAAAAAAAAAAAAAAAAAAAAAAAAAA==

> <PUBCHEM_IUPAC_OPENEYE_NAME>
2-hydroxy-3-oxo-octanoic acid

> <PUBCHEM_IUPAC_CAS_NAME>
2-hydroxy-3-oxooctanoic acid

> <PUBCHEM_IUPAC_NAME_MARKUP>
2-hydroxy-3-oxooctanoic acid

> <PUBCHEM_IUPAC_NAME>
2-hydroxy-3-oxooctanoic acid

> <PUBCHEM_IUPAC_SYSTEMATIC_NAME>
2-oxidanyl-3-oxidanylidene-octanoic acid

> <PUBCHEM_IUPAC_TRADITIONAL_NAME>
2-hydroxy-3-keto-caprylic acid

> <PUBCHEM_IUPAC_INCHI>
InChI=1S/C8H14O4/c1-2-3-4-5-6(9)7(10)8(11)12/h7,10H,2-5H2,1H3,(H,11,12)

> <PUBCHEM_IUPAC_INCHIKEY>
NNBSQHCEAPXZGV-UHFFFAOYSA-N

> <PUBCHEM_XLOGP3_AA>
1

> <PUBCHEM_EXACT_MASS>
174.08920892

> <PUBCHEM_MOLECULAR_FORMULA>
C8H14O4

> <PUBCHEM_MOLECULAR_WEIGHT>
174.19

> <PUBCHEM_OPENEYE_CAN_SMILES>
CCCCCC(=O)C(C(=O)O)O

> <PUBCHEM_OPENEYE_ISO_SMILES>
CCCCCC(=O)C(C(=O)O)O

> <PUBCHEM_CACTVS_TPSA>
74.6

> <PUBCHEM_MONOISOTOPIC_WEIGHT>
174.08920892

> <PUBCHEM_TOTAL_CHARGE>
0

> <PUBCHEM_HEAVY_ATOM_COUNT>
12

> <PUBCHEM_ATOM_DEF_STEREO_COUNT>
0

> <PUBCHEM_ATOM_UDEF_STEREO_COUNT>
1

> <PUBCHEM_BOND_DEF_STEREO_COUNT>
0

> <PUBCHEM_BOND_UDEF_STEREO_COUNT>
0

> <PUBCHEM_ISOTOPIC_ATOM_COUNT>
0

> <PUBCHEM_COMPONENT_COUNT>
1

> <PUBCHEM_CACTVS_TAUTO_COUNT>
-1

> <PUBCHEM_COORDINATE_TYPE>
1
5
255

> <PUBCHEM_BONDANNOTATIONS>
10  1  3

$$$$
