 
  -OEChem-10192104402D

 32 34  0     1  0  0  0  0  0999 V2000
    5.5605    1.2427    0.0000 O   0  0  0  0  0  0  0  0  0  0  0  0
    3.2574    0.2942    0.0000 O   0  0  0  0  0  0  0  0  0  0  0  0
    3.7548    1.8249    0.0000 O   0  0  0  0  0  0  0  0  0  0  0  0
    5.3702   -1.2408    0.0000 O   0  0  0  0  0  0  0  0  0  0  0  0
    7.6238    0.0126    0.0000 O   0  0  0  0  0  0  0  0  0  0  0  0
    6.9520   -2.0489    0.0000 O   0  0  0  0  0  0  0  0  0  0  0  0
    8.1562   -1.6356    0.0000 O   0  0  0  0  0  0  0  0  0  0  0  0
    5.0605   -0.2961    0.0000 C   0  0  3  0  0  0  0  0  0  0  0  0
    4.2515    0.2916    0.0000 C   0  0  3  0  0  0  0  0  0  0  0  0
    5.8695    0.2916    0.0000 C   0  0  3  0  0  0  0  0  0  0  0  0
    4.5605    1.2427    0.0000 C   0  0  3  0  0  0  0  0  0  0  0  0
    6.6722   -0.2948    0.0000 C   0  0  3  0  0  0  0  0  0  0  0  0
    2.9511    1.2399    0.0000 C   0  0  0  0  0  0  0  0  0  0  0  0
    6.3642   -1.2399    0.0000 C   0  0  0  0  0  0  0  0  0  0  0  0
    2.3633    2.0489    0.0000 C   0  0  0  0  0  0  0  0  0  0  0  0
    2.0000    0.9309    0.0000 C   0  0  0  0  0  0  0  0  0  0  0  0
    8.3658   -0.6578    0.0000 C   0  0  0  0  0  0  0  0  0  0  0  0
    9.3174   -0.3504    0.0000 C   0  0  0  0  0  0  0  0  0  0  0  0
    4.5594   -0.6612    0.0000 H   0  0  0  0  0  0  0  0  0  0  0  0
    4.0592   -0.2978    0.0000 H   0  0  0  0  0  0  0  0  0  0  0  0
    6.3716    0.6554    0.0000 H   0  0  0  0  0  0  0  0  0  0  0  0
    4.7513    1.8326    0.0000 H   0  0  0  0  0  0  0  0  0  0  0  0
    7.1101   -0.7337    0.0000 H   0  0  0  0  0  0  0  0  0  0  0  0
    2.8649    2.4134    0.0000 H   0  0  0  0  0  0  0  0  0  0  0  0
    1.9988    2.5505    0.0000 H   0  0  0  0  0  0  0  0  0  0  0  0
    1.8617    1.6845    0.0000 H   0  0  0  0  0  0  0  0  0  0  0  0
    1.8084    1.5206    0.0000 H   0  0  0  0  0  0  0  0  0  0  0  0
    1.4103    0.7393    0.0000 H   0  0  0  0  0  0  0  0  0  0  0  0
    2.1916    0.3412    0.0000 H   0  0  0  0  0  0  0  0  0  0  0  0
    9.5080   -0.9404    0.0000 H   0  0  0  0  0  0  0  0  0  0  0  0
    9.9074   -0.1599    0.0000 H   0  0  0  0  0  0  0  0  0  0  0  0
    9.1268    0.2396    0.0000 H   0  0  0  0  0  0  0  0  0  0  0  0
  1 10  1  0  0  0  0
  1 11  1  0  0  0  0
  2  9  1  0  0  0  0
  2 13  1  0  0  0  0
  3 11  1  0  0  0  0
  3 13  1  0  0  0  0
  4  8  1  0  0  0  0
  4 14  1  0  0  0  0
  5 12  1  0  0  0  0
  5 17  1  0  0  0  0
  6 14  2  0  0  0  0
  7 17  2  0  0  0  0
  8  9  1  0  0  0  0
  8 10  1  0  0  0  0
  8 19  1  0  0  0  0
  9 11  1  0  0  0  0
  9 20  1  0  0  0  0
 10 12  1  0  0  0  0
 10 21  1  0  0  0  0
 11 22  1  0  0  0  0
 12 14  1  0  0  0  0
 12 23  1  0  0  0  0
 13 15  1  0  0  0  0
 13 16  1  0  0  0  0
 15 24  1  0  0  0  0
 15 25  1  0  0  0  0
 15 26  1  0  0  0  0
 16 27  1  0  0  0  0
 16 28  1  0  0  0  0
 16 29  1  0  0  0  0
 17 18  1  0  0  0  0
 18 30  1  0  0  0  0
 18 31  1  0  0  0  0
 18 32  1  0  0  0  0
M  END
> <PUBCHEM_COMPOUND_CID>
58871500

> <PUBCHEM_COMPOUND_CANONICALIZED>
1

> <PUBCHEM_CACTVS_COMPLEXITY>
404

> <PUBCHEM_CACTVS_HBOND_ACCEPTOR>
7

> <PUBCHEM_CACTVS_HBOND_DONOR>
0

> <PUBCHEM_CACTVS_ROTATABLE_BOND>
2

> <PUBCHEM_CACTVS_SUBSKEYS>
AAADccBwOAAAAAAAAAAAAAAAAAAAASJEgAAAAAAAAAASJAAAAAAAGgAAAAAACBSwgAMCCAAABAAIAACQCAIAAAAAAAAAAAFAAAARABYAAAQiAAAFIAAGAAHKbAxAAAAAAAAAAAAAAAAAAAAAAAAAAAAAAA==

> <PUBCHEM_IUPAC_OPENEYE_NAME>
(4,4-dimethyl-10-oxo-3,5,7,11-tetraoxatricyclo[6.3.0.02,6]undecan-9-yl) acetate

> <PUBCHEM_IUPAC_CAS_NAME>
acetic acid (4,4-dimethyl-10-oxo-3,5,7,11-tetraoxatricyclo[6.3.0.02,6]undecan-9-yl) ester

> <PUBCHEM_IUPAC_NAME_MARKUP>
(4,4-dimethyl-10-oxo-3,5,7,11-tetraoxatricyclo[6.3.0.0<SUP>2,6</SUP>]undecan-9-yl) acetate

> <PUBCHEM_IUPAC_NAME>
(4,4-dimethyl-10-oxo-3,5,7,11-tetraoxatricyclo[6.3.0.02,6]undecan-9-yl) acetate

> <PUBCHEM_IUPAC_SYSTEMATIC_NAME>
(4,4-dimethyl-10-oxidanylidene-3,5,7,11-tetraoxatricyclo[6.3.0.02,6]undecan-9-yl) ethanoate

> <PUBCHEM_IUPAC_TRADITIONAL_NAME>
acetic acid (10-keto-4,4-dimethyl-3,5,7,11-tetraoxatricyclo[6.3.0.02,6]undecan-9-yl) ester

> <PUBCHEM_IUPAC_INCHI>
InChI=1S/C11H14O7/c1-4(12)14-7-5-6(15-9(7)13)8-10(16-5)18-11(2,3)17-8/h5-8,10H,1-3H3

> <PUBCHEM_IUPAC_INCHIKEY>
AUGYVLOJRGTFFY-UHFFFAOYSA-N

> <PUBCHEM_XLOGP3_AA>
0

> <PUBCHEM_EXACT_MASS>
258.07395278

> <PUBCHEM_MOLECULAR_FORMULA>
C11H14O7

> <PUBCHEM_MOLECULAR_WEIGHT>
258.22

> <PUBCHEM_OPENEYE_CAN_SMILES>
CC(=O)OC1C2C(C3C(O2)OC(O3)(C)C)OC1=O

> <PUBCHEM_OPENEYE_ISO_SMILES>
CC(=O)OC1C2C(C3C(O2)OC(O3)(C)C)OC1=O

> <PUBCHEM_CACTVS_TPSA>
80.3

> <PUBCHEM_MONOISOTOPIC_WEIGHT>
258.07395278

> <PUBCHEM_TOTAL_CHARGE>
0

> <PUBCHEM_HEAVY_ATOM_COUNT>
18

> <PUBCHEM_ATOM_DEF_STEREO_COUNT>
0

> <PUBCHEM_ATOM_UDEF_STEREO_COUNT>
5

> <PUBCHEM_BOND_DEF_STEREO_COUNT>
0

> <PUBCHEM_BOND_UDEF_STEREO_COUNT>
0

> <PUBCHEM_ISOTOPIC_ATOM_COUNT>
0

> <PUBCHEM_COMPONENT_COUNT>
1

> <PUBCHEM_CACTVS_TAUTO_COUNT>
-1

> <PUBCHEM_COORDINATE_TYPE>
1
5
255

> <PUBCHEM_BONDANNOTATIONS>
10  1  3
11  1  3
9  2  3
8  4  3
12  5  3

$$$$
