 
  -OEChem-10192104042D

 56 59  0     1  0  0  0  0  0999 V2000
    5.8007    1.7649    0.0000 O   0  0  0  0  0  0  0  0  0  0  0  0
    7.4044   -1.6731    0.0000 O   0  0  0  0  0  0  0  0  0  0  0  0
    5.7930    3.0031    0.0000 O   0  0  0  0  0  0  0  0  0  0  0  0
    8.1745   -0.4526    0.0000 O   0  0  0  0  0  0  0  0  0  0  0  0
    2.3052   -2.6371    0.0000 O   0  0  0  0  0  0  0  0  0  0  0  0
    3.8128   -3.4898    0.0000 O   0  0  0  0  0  0  0  0  0  0  0  0
    6.5090   -0.1461    0.0000 C   0  0  2  0  0  0  0  0  0  0  0  0
    5.6405    0.3496    0.0000 C   0  0  2  0  0  0  0  0  0  0  0  0
    4.7330   -0.1618    0.0000 C   0  0  1  0  0  0  0  0  0  0  0  0
    4.7302   -1.2034    0.0000 C   0  0  2  0  0  0  0  0  0  0  0  0
    6.4845    1.0353    0.0000 C   0  0  1  0  0  0  0  0  0  0  0  0
    7.1606    2.0043    0.0000 C   0  0  2  0  0  0  0  0  0  0  0  0
    6.5302   -1.1875    0.0000 C   0  0  1  0  0  0  0  0  0  0  0  0
    5.4865    1.3377    0.0000 C   0  0  0  0  0  0  0  0  0  0  0  0
    5.6349   -1.7197    0.0000 C   0  0  0  0  0  0  0  0  0  0  0  0
    7.7280    1.1809    0.0000 C   0  0  2  0  0  0  0  0  0  0  0  0
    6.1630    2.0741    0.0000 C   0  0  2  0  0  0  0  0  0  0  0  0
    7.4380    0.2239    0.0000 C   0  0  0  0  0  0  0  0  0  0  0  0
    3.7975   -1.7578    0.0000 C   0  0  1  0  0  0  0  0  0  0  0  0
    3.8034    0.3977    0.0000 C   0  0  0  0  0  0  0  0  0  0  0  0
    4.3936    0.7788    0.0000 C   0  0  0  0  0  0  0  0  0  0  0  0
    2.8552   -1.2200    0.0000 C   0  0  0  0  0  0  0  0  0  0  0  0
    2.8582   -0.1350    0.0000 C   0  0  0  0  0  0  0  0  0  0  0  0
    8.7161    1.3349    0.0000 C   0  0  0  0  0  0  0  0  0  0  0  0
    4.3052   -2.6194    0.0000 C   0  0  0  0  0  0  0  0  0  0  0  0
    3.3052   -2.6282    0.0000 C   0  0  0  0  0  0  0  0  0  0  0  0
    4.9023    0.7709    0.0000 H   0  0  0  0  0  0  0  0  0  0  0  0
    4.7377   -2.0534    0.0000 H   0  0  0  0  0  0  0  0  0  0  0  0
    5.9103    0.8013    0.0000 H   0  0  0  0  0  0  0  0  0  0  0  0
    7.4071    2.8178    0.0000 H   0  0  0  0  0  0  0  0  0  0  0  0
    6.5393   -1.8074    0.0000 H   0  0  0  0  0  0  0  0  0  0  0  0
    5.1347    1.8482    0.0000 H   0  0  0  0  0  0  0  0  0  0  0  0
    4.9105    1.1083    0.0000 H   0  0  0  0  0  0  0  0  0  0  0  0
    5.2399   -2.1977    0.0000 H   0  0  0  0  0  0  0  0  0  0  0  0
    6.0382   -2.1906    0.0000 H   0  0  0  0  0  0  0  0  0  0  0  0
    8.1348    0.7130    0.0000 H   0  0  0  0  0  0  0  0  0  0  0  0
    6.5287    2.5748    0.0000 H   0  0  0  0  0  0  0  0  0  0  0  0
    4.2093    0.8663    0.0000 H   0  0  0  0  0  0  0  0  0  0  0  0
    3.4111    0.8777    0.0000 H   0  0  0  0  0  0  0  0  0  0  0  0
    4.9768    0.9893    0.0000 H   0  0  0  0  0  0  0  0  0  0  0  0
    4.1831    1.3620    0.0000 H   0  0  0  0  0  0  0  0  0  0  0  0
    3.8104    0.5684    0.0000 H   0  0  0  0  0  0  0  0  0  0  0  0
    2.2446   -1.1122    0.0000 H   0  0  0  0  0  0  0  0  0  0  0  0
    2.6446   -1.8031    0.0000 H   0  0  0  0  0  0  0  0  0  0  0  0
    2.6507    0.4492    0.0000 H   0  0  0  0  0  0  0  0  0  0  0  0
    2.2470   -0.2394    0.0000 H   0  0  0  0  0  0  0  0  0  0  0  0
    8.8116    0.7223    0.0000 H   0  0  0  0  0  0  0  0  0  0  0  0
    9.3287    1.4304    0.0000 H   0  0  0  0  0  0  0  0  0  0  0  0
    8.6206    1.9475    0.0000 H   0  0  0  0  0  0  0  0  0  0  0  0
    3.7710   -2.9341    0.0000 H   0  0  0  0  0  0  0  0  0  0  0  0
    4.6199   -3.1536    0.0000 H   0  0  0  0  0  0  0  0  0  0  0  0
    4.8393   -2.3046    0.0000 H   0  0  0  0  0  0  0  0  0  0  0  0
    5.2073    1.9447    0.0000 H   0  0  0  0  0  0  0  0  0  0  0  0
    7.4147   -2.2930    0.0000 H   0  0  0  0  0  0  0  0  0  0  0  0
    6.1772    3.4898    0.0000 H   0  0  0  0  0  0  0  0  0  0  0  0
    2.0000   -3.1767    0.0000 H   0  0  0  0  0  0  0  0  0  0  0  0
 11  1  1  6  0  0  0
  1 53  1  0  0  0  0
 13  2  1  6  0  0  0
  2 54  1  0  0  0  0
 17  3  1  6  0  0  0
  3 55  1  0  0  0  0
  4 18  2  0  0  0  0
  5 26  1  0  0  0  0
  5 56  1  0  0  0  0
  6 26  2  0  0  0  0
  7  8  1  0  0  0  0
  7 11  1  0  0  0  0
  7 13  1  0  0  0  0
  7 18  1  1  0  0  0
  8  9  1  0  0  0  0
  8 14  1  0  0  0  0
  8 27  1  1  0  0  0
  9 10  1  0  0  0  0
  9 20  1  0  0  0  0
  9 21  1  6  0  0  0
 10 15  1  0  0  0  0
 10 19  1  0  0  0  0
 10 28  1  1  0  0  0
 11 12  1  0  0  0  0
 11 29  1  0  0  0  0
 12 16  1  0  0  0  0
 12 17  1  0  0  0  0
 12 30  1  6  0  0  0
 13 15  1  0  0  0  0
 13 31  1  0  0  0  0
 14 17  1  0  0  0  0
 14 32  1  0  0  0  0
 14 33  1  0  0  0  0
 15 34  1  0  0  0  0
 15 35  1  0  0  0  0
 16 18  1  0  0  0  0
 16 24  1  1  0  0  0
 16 36  1  0  0  0  0
 17 37  1  0  0  0  0
 19 22  1  0  0  0  0
 19 25  1  6  0  0  0
 19 26  1  0  0  0  0
 20 23  1  0  0  0  0
 20 38  1  0  0  0  0
 20 39  1  0  0  0  0
 21 40  1  0  0  0  0
 21 41  1  0  0  0  0
 21 42  1  0  0  0  0
 22 23  1  0  0  0  0
 22 43  1  0  0  0  0
 22 44  1  0  0  0  0
 23 45  1  0  0  0  0
 23 46  1  0  0  0  0
 24 47  1  0  0  0  0
 24 48  1  0  0  0  0
 24 49  1  0  0  0  0
 25 50  1  0  0  0  0
 25 51  1  0  0  0  0
 25 52  1  0  0  0  0
M  END
> <PUBCHEM_COMPOUND_CID>
44584281

> <PUBCHEM_COMPOUND_CANONICALIZED>
1

> <PUBCHEM_CACTVS_COMPLEXITY>
663

> <PUBCHEM_CACTVS_HBOND_ACCEPTOR>
6

> <PUBCHEM_CACTVS_HBOND_DONOR>
4

> <PUBCHEM_CACTVS_ROTATABLE_BOND>
1

> <PUBCHEM_CACTVS_SUBSKEYS>
AAADceB4OAAAAAAAAAAAAAAAAAAAAYAAAAAwYMAABgAAAADAAAAAGgAACAAADxSggAICCAAAAgAIAICQCAAAAAAAAAAAAAEAAAAAEBYAAAAAQAAFIAAAAAGK7PTPgAAAAAAAAADAAAYQADAAAYAADAAAAA==

> <PUBCHEM_IUPAC_OPENEYE_NAME>
(1R,2R,4S,5S,9S,10S,12S,13R,14R,16R)-2,12,16-trihydroxy-5,9,14-trimethyl-15-oxo-tetracyclo[11.2.1.01,10.04,9]hexadecane-5-carboxylic acid

> <PUBCHEM_IUPAC_CAS_NAME>
(1R,2R,4S,5S,9S,10S,12S,13R,14R,16R)-2,12,16-trihydroxy-5,9,14-trimethyl-15-oxo-5-tetracyclo[11.2.1.01,10.04,9]hexadecanecarboxylic acid

> <PUBCHEM_IUPAC_NAME_MARKUP>
(1<I>R</I>,2<I>R</I>,4<I>S</I>,5<I>S</I>,9<I>S</I>,10<I>S</I>,12<I>S</I>,13<I>R</I>,14<I>R</I>,16<I>R</I>)-2,12,16-trihydroxy-5,9,14-trimethyl-15-oxotetracyclo[11.2.1.0<SUP>1,10</SUP>.0<SUP>4,9</SUP>]hexadecane-5-carboxylic acid

> <PUBCHEM_IUPAC_NAME>
(1R,2R,4S,5S,9S,10S,12S,13R,14R,16R)-2,12,16-trihydroxy-5,9,14-trimethyl-15-oxotetracyclo[11.2.1.01,10.04,9]hexadecane-5-carboxylic acid

> <PUBCHEM_IUPAC_SYSTEMATIC_NAME>
(1R,2R,4S,5S,9S,10S,12S,13R,14R,16R)-5,9,14-trimethyl-2,12,16-tris(oxidanyl)-15-oxidanylidene-tetracyclo[11.2.1.01,10.04,9]hexadecane-5-carboxylic acid

> <PUBCHEM_IUPAC_TRADITIONAL_NAME>
(1R,2R,4S,5S,9S,10S,12S,13R,14R,16R)-2,12,16-trihydroxy-15-keto-5,9,14-trimethyl-tetracyclo[11.2.1.01,10.04,9]hexadecane-5-carboxylic acid

> <PUBCHEM_IUPAC_INCHI>
InChI=1S/C20H30O6/c1-9-14-10(21)7-12-18(2)5-4-6-19(3,17(25)26)11(18)8-13(22)20(12,15(9)23)16(14)24/h9-14,16,21-22,24H,4-8H2,1-3H3,(H,25,26)/t9-,10+,11+,12+,13-,14-,16-,18-,19+,20+/m1/s1

> <PUBCHEM_IUPAC_INCHIKEY>
LSIQUMAAMOBJLY-RSAAZKNJSA-N

> <PUBCHEM_XLOGP3_AA>
1

> <PUBCHEM_EXACT_MASS>
366.20423867

> <PUBCHEM_MOLECULAR_FORMULA>
C20H30O6

> <PUBCHEM_MOLECULAR_WEIGHT>
366.4

> <PUBCHEM_OPENEYE_CAN_SMILES>
CC1C2C(CC3C4(CCCC(C4CC(C3(C2O)C1=O)O)(C)C(=O)O)C)O

> <PUBCHEM_OPENEYE_ISO_SMILES>
C[C@@H]1[C@@H]2[C@H](C[C@H]3[C@@]4(CCC[C@]([C@H]4C[C@H]([C@]3([C@@H]2O)C1=O)O)(C)C(=O)O)C)O

> <PUBCHEM_CACTVS_TPSA>
115

> <PUBCHEM_MONOISOTOPIC_WEIGHT>
366.20423867

> <PUBCHEM_TOTAL_CHARGE>
0

> <PUBCHEM_HEAVY_ATOM_COUNT>
26

> <PUBCHEM_ATOM_DEF_STEREO_COUNT>
10

> <PUBCHEM_ATOM_UDEF_STEREO_COUNT>
0

> <PUBCHEM_BOND_DEF_STEREO_COUNT>
0

> <PUBCHEM_BOND_UDEF_STEREO_COUNT>
0

> <PUBCHEM_ISOTOPIC_ATOM_COUNT>
0

> <PUBCHEM_COMPONENT_COUNT>
1

> <PUBCHEM_CACTVS_TAUTO_COUNT>
-1

> <PUBCHEM_COORDINATE_TYPE>
1
5
255

> <PUBCHEM_BONDANNOTATIONS>
11  1  6
10  28  5
12  30  6
16  24  5
19  25  6
13  2  6
17  3  6
7  18  5
8  27  5
9  21  6

$$$$
