 
  -OEChem-10192103542D

 48 48  0     1  0  0  0  0  0999 V2000
    4.6215    4.8683    0.0000 S   0  0  0  0  0  0  0  0  0  0  0  0
    6.1591   -0.1949    0.0000 O   0  0  0  0  0  0  0  0  0  0  0  0
    5.3457   -2.0220    0.0000 O   0  0  0  0  0  0  0  0  0  0  0  0
    3.4013    2.1276    0.0000 O   0  0  0  0  0  0  0  0  0  0  0  0
    4.2147    3.9547    0.0000 O   0  0  0  0  0  0  0  0  0  0  0  0
    5.0282    5.7818    0.0000 O   0  0  0  0  0  0  0  0  0  0  0  0
    3.7079    5.2750    0.0000 O   0  0  0  0  0  0  0  0  0  0  0  0
    5.5350    4.4615    0.0000 O   0  0  0  0  0  0  0  0  0  0  0  0
    4.9836    1.4231    0.0000 N   0  0  0  0  0  0  0  0  0  0  0  0
    4.7579   -1.2130    0.0000 N   0  0  0  0  0  0  0  0  0  0  0  0
    4.8025    3.1457    0.0000 N   0  0  0  0  0  0  0  0  0  0  0  0
    6.0267   -5.2834    0.0000 N   0  0  0  0  0  0  0  0  0  0  0  0
    6.5267   -3.7446    0.0000 N   0  0  0  0  0  0  0  0  0  0  0  0
    6.8357   -4.6956    0.0000 N   0  0  0  0  0  0  0  0  0  0  0  0
    4.5768    0.5096    0.0000 C   0  0  1  0  0  0  0  0  0  0  0  0
    3.5823    0.4051    0.0000 C   0  0  0  0  0  0  0  0  0  0  0  0
    2.9945    1.2141    0.0000 C   0  0  0  0  0  0  0  0  0  0  0  0
    5.9781    1.5277    0.0000 C   0  0  0  0  0  0  0  0  0  0  0  0
    5.1646   -0.2994    0.0000 C   0  0  0  0  0  0  0  0  0  0  0  0
    2.0000    1.1096    0.0000 C   0  0  0  0  0  0  0  0  0  0  0  0
    4.3958    2.2322    0.0000 C   0  0  0  0  0  0  0  0  0  0  0  0
    6.3848    2.4412    0.0000 C   0  0  0  0  0  0  0  0  0  0  0  0
    4.9389   -2.9355    0.0000 C   0  0  0  0  0  0  0  0  0  0  0  0
    5.5267   -3.7446    0.0000 C   0  0  0  0  0  0  0  0  0  0  0  0
    5.2177   -4.6956    0.0000 C   0  0  0  0  0  0  0  0  0  0  0  0
    6.0267   -6.2834    0.0000 C   0  0  0  0  0  0  0  0  0  0  0  0
    4.2124    1.0112    0.0000 H   0  0  0  0  0  0  0  0  0  0  0  0
    3.0250    0.1333    0.0000 H   0  0  0  0  0  0  0  0  0  0  0  0
    3.7532   -0.1909    0.0000 H   0  0  0  0  0  0  0  0  0  0  0  0
    3.5518    1.4859    0.0000 H   0  0  0  0  0  0  0  0  0  0  0  0
    2.8236    1.8101    0.0000 H   0  0  0  0  0  0  0  0  0  0  0  0
    5.9348    0.9092    0.0000 H   0  0  0  0  0  0  0  0  0  0  0  0
    6.5797    1.3777    0.0000 H   0  0  0  0  0  0  0  0  0  0  0  0
    1.9352    1.7262    0.0000 H   0  0  0  0  0  0  0  0  0  0  0  0
    1.3834    1.0447    0.0000 H   0  0  0  0  0  0  0  0  0  0  0  0
    2.0648    0.4929    0.0000 H   0  0  0  0  0  0  0  0  0  0  0  0
    6.9512    2.1890    0.0000 H   0  0  0  0  0  0  0  0  0  0  0  0
    6.6370    3.0076    0.0000 H   0  0  0  0  0  0  0  0  0  0  0  0
    5.8184    2.6934    0.0000 H   0  0  0  0  0  0  0  0  0  0  0  0
    4.1413   -1.2778    0.0000 H   0  0  0  0  0  0  0  0  0  0  0  0
    5.4191    3.2105    0.0000 H   0  0  0  0  0  0  0  0  0  0  0  0
    4.4249   -2.5888    0.0000 H   0  0  0  0  0  0  0  0  0  0  0  0
    4.5082   -3.3815    0.0000 H   0  0  0  0  0  0  0  0  0  0  0  0
    4.6280   -4.8872    0.0000 H   0  0  0  0  0  0  0  0  0  0  0  0
    5.4067   -6.2834    0.0000 H   0  0  0  0  0  0  0  0  0  0  0  0
    6.0267   -6.9034    0.0000 H   0  0  0  0  0  0  0  0  0  0  0  0
    6.6467   -6.2834    0.0000 H   0  0  0  0  0  0  0  0  0  0  0  0
    4.6638    6.2834    0.0000 H   0  0  0  0  0  0  0  0  0  0  0  0
  1  5  1  0  0  0  0
  1  6  1  0  0  0  0
  1  7  2  0  0  0  0
  1  8  2  0  0  0  0
  2 19  2  0  0  0  0
  3 10  1  0  0  0  0
  3 23  1  0  0  0  0
  4 21  2  0  0  0  0
  5 11  1  0  0  0  0
  6 48  1  0  0  0  0
 15  9  1  6  0  0  0
  9 18  1  0  0  0  0
  9 21  1  0  0  0  0
 10 19  1  0  0  0  0
 10 40  1  0  0  0  0
 11 21  1  0  0  0  0
 11 41  1  0  0  0  0
 12 14  1  0  0  0  0
 12 25  1  0  0  0  0
 12 26  1  0  0  0  0
 13 14  2  0  0  0  0
 13 24  1  0  0  0  0
 15 16  1  0  0  0  0
 15 19  1  0  0  0  0
 15 27  1  0  0  0  0
 16 17  1  0  0  0  0
 16 28  1  0  0  0  0
 16 29  1  0  0  0  0
 17 20  1  0  0  0  0
 17 30  1  0  0  0  0
 17 31  1  0  0  0  0
 18 22  1  0  0  0  0
 18 32  1  0  0  0  0
 18 33  1  0  0  0  0
 20 34  1  0  0  0  0
 20 35  1  0  0  0  0
 20 36  1  0  0  0  0
 22 37  1  0  0  0  0
 22 38  1  0  0  0  0
 22 39  1  0  0  0  0
 23 24  1  0  0  0  0
 23 42  1  0  0  0  0
 23 43  1  0  0  0  0
 24 25  2  0  0  0  0
 25 44  1  0  0  0  0
 26 45  1  0  0  0  0
 26 46  1  0  0  0  0
 26 47  1  0  0  0  0
M  END
> <PUBCHEM_COMPOUND_CID>
90228583

> <PUBCHEM_COMPOUND_CANONICALIZED>
1

> <PUBCHEM_CACTVS_COMPLEXITY>
569

> <PUBCHEM_CACTVS_HBOND_ACCEPTOR>
9

> <PUBCHEM_CACTVS_HBOND_DONOR>
3

> <PUBCHEM_CACTVS_ROTATABLE_BOND>
10

> <PUBCHEM_CACTVS_SUBSKEYS>
AAADceBzuABAAAAAAAAAAAAAAAAAAWAAAAAAAAAAAAAAAAABgAAAHgAcCAAACCjhlgYvgBNYAICqARV3VDQABAQRkgAwUAG4eACCRBJAgSAUAAACFgLAAAAYAAAAAAAAAAAAAAAAAAAAAAAAAAAAAAAAAA==

> <PUBCHEM_IUPAC_OPENEYE_NAME>
[[ethyl-[(1S)-1-[(1-methyltriazol-4-yl)methoxycarbamoyl]butyl]carbamoyl]amino] hydrogen sulfate

> <PUBCHEM_IUPAC_CAS_NAME>
sulfuric acid [[[ethyl-[(2S)-1-[(1-methyl-4-triazolyl)methoxyamino]-1-oxopentan-2-yl]amino]-oxomethyl]amino] ester

> <PUBCHEM_IUPAC_NAME_MARKUP>
[[ethyl-[(2<I>S</I>)-1-[(1-methyltriazol-4-yl)methoxyamino]-1-oxopentan-2-yl]carbamoyl]amino] hydrogen sulfate

> <PUBCHEM_IUPAC_NAME>
[[ethyl-[(2S)-1-[(1-methyltriazol-4-yl)methoxyamino]-1-oxopentan-2-yl]carbamoyl]amino] hydrogen sulfate

> <PUBCHEM_IUPAC_SYSTEMATIC_NAME>
[[ethyl-[(2S)-1-[(1-methyl-1,2,3-triazol-4-yl)methoxyamino]-1-oxidanylidene-pentan-2-yl]carbamoyl]amino] hydrogen sulfate

> <PUBCHEM_IUPAC_TRADITIONAL_NAME>
sulfuric acid [[ethyl-[(1S)-1-[(1-methyltriazol-4-yl)methoxycarbamoyl]butyl]carbamoyl]amino] ester

> <PUBCHEM_IUPAC_INCHI>
InChI=1S/C12H22N6O7S/c1-4-6-10(18(5-2)12(20)15-25-26(21,22)23)11(19)14-24-8-9-7-17(3)16-13-9/h7,10H,4-6,8H2,1-3H3,(H,14,19)(H,15,20)(H,21,22,23)/t10-/m0/s1

> <PUBCHEM_IUPAC_INCHIKEY>
SLHIMUWDCWNDAM-JTQLQIEISA-N

> <PUBCHEM_XLOGP3_AA>
-1

> <PUBCHEM_EXACT_MASS>
394.12706824

> <PUBCHEM_MOLECULAR_FORMULA>
C12H22N6O7S

> <PUBCHEM_MOLECULAR_WEIGHT>
394.41

> <PUBCHEM_OPENEYE_CAN_SMILES>
CCCC(C(=O)NOCC1=CN(N=N1)C)N(CC)C(=O)NOS(=O)(=O)O

> <PUBCHEM_OPENEYE_ISO_SMILES>
CCC[C@@H](C(=O)NOCC1=CN(N=N1)C)N(CC)C(=O)NOS(=O)(=O)O

> <PUBCHEM_CACTVS_TPSA>
173

> <PUBCHEM_MONOISOTOPIC_WEIGHT>
394.12706824

> <PUBCHEM_TOTAL_CHARGE>
0

> <PUBCHEM_HEAVY_ATOM_COUNT>
26

> <PUBCHEM_ATOM_DEF_STEREO_COUNT>
1

> <PUBCHEM_ATOM_UDEF_STEREO_COUNT>
0

> <PUBCHEM_BOND_DEF_STEREO_COUNT>
0

> <PUBCHEM_BOND_UDEF_STEREO_COUNT>
0

> <PUBCHEM_ISOTOPIC_ATOM_COUNT>
0

> <PUBCHEM_COMPONENT_COUNT>
1

> <PUBCHEM_CACTVS_TAUTO_COUNT>
-1

> <PUBCHEM_COORDINATE_TYPE>
1
5
255

> <PUBCHEM_BONDANNOTATIONS>
12  14  8
12  25  8
13  14  8
13  24  8
24  25  8
15  9  6

$$$$
