 
  -OEChem-10192104032D

 67 68  0     1  0  0  0  0  0999 V2000
    9.8186   -2.2604    0.0000 P   0  0  0  0  0  0  0  0  0  0  0  0
    7.9575    0.2042    0.0000 O   0  0  0  0  0  0  0  0  0  0  0  0
    5.3884    0.5132    0.0000 O   0  0  0  0  0  0  0  0  0  0  0  0
    6.0607   -1.5559    0.0000 O   0  0  0  0  0  0  0  0  0  0  0  0
    9.6375   -0.5378    0.0000 O   0  0  0  0  0  0  0  0  0  0  0  0
   10.4064   -3.0694    0.0000 O   0  0  0  0  0  0  0  0  0  0  0  0
   10.6276   -1.6726    0.0000 O   0  0  0  0  0  0  0  0  0  0  0  0
    9.0096   -2.8482    0.0000 O   0  0  0  0  0  0  0  0  0  0  0  0
    8.8805    1.7920    0.0000 O   0  0  0  0  0  0  0  0  0  0  0  0
    2.9511   -0.5160    0.0000 O   0  0  0  0  0  0  0  0  0  0  0  0
    7.1485    4.7920    0.0000 O   0  0  0  0  0  0  0  0  0  0  0  0
   11.2198   -1.2423    0.0000 O   0  0  0  0  0  0  0  0  0  0  0  0
    7.1485    1.7920    0.0000 N   0  0  0  0  0  0  0  0  0  0  0  0
    8.0145    3.2920    0.0000 N   0  0  0  0  0  0  0  0  0  0  0  0
    7.6485   -0.7469    0.0000 C   0  0  3  0  0  0  0  0  0  0  0  0
    6.6485   -0.7469    0.0000 C   0  0  2  0  0  0  0  0  0  0  0  0
    6.3395    0.2042    0.0000 C   0  0  2  0  0  0  0  0  0  0  0  0
    7.1485    0.7920    0.0000 C   0  0  1  0  0  0  0  0  0  0  0  0
    8.2363   -1.5559    0.0000 C   0  0  0  0  0  0  0  0  0  0  0  0
    9.2308   -1.4514    0.0000 C   0  0  3  0  0  0  0  0  0  0  0  0
    6.2824    2.2920    0.0000 C   0  0  0  0  0  0  0  0  0  0  0  0
    4.6453   -0.1559    0.0000 C   0  0  0  0  0  0  0  0  0  0  0  0
    8.0145    2.2920    0.0000 C   0  0  0  0  0  0  0  0  0  0  0  0
    6.2824    3.2920    0.0000 C   0  0  0  0  0  0  0  0  0  0  0  0
    3.6942    0.1531    0.0000 C   0  0  0  0  0  0  0  0  0  0  0  0
    7.1485    3.7920    0.0000 C   0  0  0  0  0  0  0  0  0  0  0  0
   10.6320   -0.4333    0.0000 C   0  0  0  0  0  0  0  0  0  0  0  0
    9.9996   -3.9830    0.0000 C   0  0  0  0  0  0  0  0  0  0  0  0
   11.5411   -2.0793    0.0000 C   0  0  0  0  0  0  0  0  0  0  0  0
    5.4164    3.7920    0.0000 C   0  0  0  0  0  0  0  0  0  0  0  0
   11.0388    0.4803    0.0000 C   0  0  0  0  0  0  0  0  0  0  0  0
   10.5874   -4.7920    0.0000 C   0  0  0  0  0  0  0  0  0  0  0  0
   12.3501   -1.4916    0.0000 C   0  0  0  0  0  0  0  0  0  0  0  0
    2.0000   -0.2070    0.0000 C   0  0  0  0  0  0  0  0  0  0  0  0
    8.2608   -0.6499    0.0000 H   0  0  0  0  0  0  0  0  0  0  0  0
    6.0361   -0.6499    0.0000 H   0  0  0  0  0  0  0  0  0  0  0  0
    6.2425    0.8165    0.0000 H   0  0  0  0  0  0  0  0  0  0  0  0
    6.5960    1.0734    0.0000 H   0  0  0  0  0  0  0  0  0  0  0  0
    7.6790   -1.8277    0.0000 H   0  0  0  0  0  0  0  0  0  0  0  0
    8.4072   -2.1519    0.0000 H   0  0  0  0  0  0  0  0  0  0  0  0
    8.8664   -0.9498    0.0000 H   0  0  0  0  0  0  0  0  0  0  0  0
    6.3129   -2.1223    0.0000 H   0  0  0  0  0  0  0  0  0  0  0  0
    5.7455    1.9820    0.0000 H   0  0  0  0  0  0  0  0  0  0  0  0
    4.3542   -0.7034    0.0000 H   0  0  0  0  0  0  0  0  0  0  0  0
    5.1338   -0.5376    0.0000 H   0  0  0  0  0  0  0  0  0  0  0  0
    8.5514    3.6020    0.0000 H   0  0  0  0  0  0  0  0  0  0  0  0
    3.9853    0.7005    0.0000 H   0  0  0  0  0  0  0  0  0  0  0  0
    3.2056    0.5348    0.0000 H   0  0  0  0  0  0  0  0  0  0  0  0
    9.4856   -3.6362    0.0000 H   0  0  0  0  0  0  0  0  0  0  0  0
    9.5689   -4.4289    0.0000 H   0  0  0  0  0  0  0  0  0  0  0  0
   11.1944   -2.5933    0.0000 H   0  0  0  0  0  0  0  0  0  0  0  0
   11.9871   -2.5100    0.0000 H   0  0  0  0  0  0  0  0  0  0  0  0
    5.7264    4.3289    0.0000 H   0  0  0  0  0  0  0  0  0  0  0  0
    4.8795    4.1020    0.0000 H   0  0  0  0  0  0  0  0  0  0  0  0
    5.1064    3.2550    0.0000 H   0  0  0  0  0  0  0  0  0  0  0  0
   11.6052    0.2281    0.0000 H   0  0  0  0  0  0  0  0  0  0  0  0
   11.2910    1.0466    0.0000 H   0  0  0  0  0  0  0  0  0  0  0  0
   10.4724    0.7324    0.0000 H   0  0  0  0  0  0  0  0  0  0  0  0
   10.0858   -5.1564    0.0000 H   0  0  0  0  0  0  0  0  0  0  0  0
   10.9518   -5.2936    0.0000 H   0  0  0  0  0  0  0  0  0  0  0  0
   11.0890   -4.4275    0.0000 H   0  0  0  0  0  0  0  0  0  0  0  0
   12.7146   -1.9931    0.0000 H   0  0  0  0  0  0  0  0  0  0  0  0
   12.8517   -1.1271    0.0000 H   0  0  0  0  0  0  0  0  0  0  0  0
   11.9857   -0.9900    0.0000 H   0  0  0  0  0  0  0  0  0  0  0  0
    2.1916    0.3826    0.0000 H   0  0  0  0  0  0  0  0  0  0  0  0
    1.4103   -0.0154    0.0000 H   0  0  0  0  0  0  0  0  0  0  0  0
    1.8084   -0.7967    0.0000 H   0  0  0  0  0  0  0  0  0  0  0  0
  1  6  1  0  0  0  0
  1  7  1  0  0  0  0
  1  8  2  0  0  0  0
  1 20  1  0  0  0  0
  2 15  1  0  0  0  0
  2 18  1  0  0  0  0
 17  3  1  1  0  0  0
  3 22  1  0  0  0  0
 16  4  1  1  0  0  0
  4 42  1  0  0  0  0
  5 20  1  0  0  0  0
  5 27  1  0  0  0  0
  6 28  1  0  0  0  0
  7 29  1  0  0  0  0
  9 23  2  0  0  0  0
 10 25  1  0  0  0  0
 10 34  1  0  0  0  0
 11 26  2  0  0  0  0
 12 27  2  0  0  0  0
 18 13  1  6  0  0  0
 13 21  1  0  0  0  0
 13 23  1  0  0  0  0
 14 23  1  0  0  0  0
 14 26  1  0  0  0  0
 14 46  1  0  0  0  0
 15 16  1  0  0  0  0
 15 19  1  0  0  0  0
 15 35  1  0  0  0  0
 16 17  1  0  0  0  0
 16 36  1  0  0  0  0
 17 18  1  0  0  0  0
 17 37  1  0  0  0  0
 18 38  1  0  0  0  0
 19 20  1  0  0  0  0
 19 39  1  0  0  0  0
 19 40  1  0  0  0  0
 20 41  1  0  0  0  0
 21 24  2  0  0  0  0
 21 43  1  0  0  0  0
 22 25  1  0  0  0  0
 22 44  1  0  0  0  0
 22 45  1  0  0  0  0
 24 26  1  0  0  0  0
 24 30  1  0  0  0  0
 25 47  1  0  0  0  0
 25 48  1  0  0  0  0
 27 31  1  0  0  0  0
 28 32  1  0  0  0  0
 28 49  1  0  0  0  0
 28 50  1  0  0  0  0
 29 33  1  0  0  0  0
 29 51  1  0  0  0  0
 29 52  1  0  0  0  0
 30 53  1  0  0  0  0
 30 54  1  0  0  0  0
 30 55  1  0  0  0  0
 31 56  1  0  0  0  0
 31 57  1  0  0  0  0
 31 58  1  0  0  0  0
 32 59  1  0  0  0  0
 32 60  1  0  0  0  0
 32 61  1  0  0  0  0
 33 62  1  0  0  0  0
 33 63  1  0  0  0  0
 33 64  1  0  0  0  0
 34 65  1  0  0  0  0
 34 66  1  0  0  0  0
 34 67  1  0  0  0  0
M  END
> <PUBCHEM_COMPOUND_CID>
88889016

> <PUBCHEM_COMPOUND_CANONICALIZED>
1

> <PUBCHEM_CACTVS_COMPLEXITY>
810

> <PUBCHEM_CACTVS_HBOND_ACCEPTOR>
11

> <PUBCHEM_CACTVS_HBOND_DONOR>
2

> <PUBCHEM_CACTVS_ROTATABLE_BOND>
14

> <PUBCHEM_CACTVS_SUBSKEYS>
AAADcfB7PAIAAAAAAAAAAAAAAAAAASAAAAAgAAAAAAAAAAAAAAAAHggQCCAADBTpgAYDCAPABxCIQgHWWICAAAAAAAAAAAEIAECDEAIAgQAPQAAPByITAMHwYAwAAAAAAAAAAAAAAAAAAAAAAAAAAAAAAA==

> <PUBCHEM_IUPAC_OPENEYE_NAME>
[1-diethoxyphosphoryl-2-[(3R,4R,5R)-3-hydroxy-4-(2-methoxyethoxy)-5-(5-methyl-2,4-dioxo-pyrimidin-1-yl)tetrahydrofuran-2-yl]ethyl] acetate

> <PUBCHEM_IUPAC_CAS_NAME>
acetic acid [1-diethoxyphosphoryl-2-[(3R,4R,5R)-3-hydroxy-4-(2-methoxyethoxy)-5-(5-methyl-2,4-dioxo-1-pyrimidinyl)-2-oxolanyl]ethyl] ester

> <PUBCHEM_IUPAC_NAME_MARKUP>
[1-diethoxyphosphoryl-2-[(3<I>R</I>,4<I>R</I>,5<I>R</I>)-3-hydroxy-4-(2-methoxyethoxy)-5-(5-methyl-2,4-dioxopyrimidin-1-yl)oxolan-2-yl]ethyl] acetate

> <PUBCHEM_IUPAC_NAME>
[1-diethoxyphosphoryl-2-[(3R,4R,5R)-3-hydroxy-4-(2-methoxyethoxy)-5-(5-methyl-2,4-dioxopyrimidin-1-yl)oxolan-2-yl]ethyl] acetate

> <PUBCHEM_IUPAC_SYSTEMATIC_NAME>
[1-diethoxyphosphoryl-2-[(3R,4R,5R)-4-(2-methoxyethoxy)-5-[5-methyl-2,4-bis(oxidanylidene)pyrimidin-1-yl]-3-oxidanyl-oxolan-2-yl]ethyl] ethanoate

> <PUBCHEM_IUPAC_TRADITIONAL_NAME>
acetic acid [1-diethoxyphosphoryl-2-[(3R,4R,5R)-5-(2,4-diketo-5-methyl-pyrimidin-1-yl)-3-hydroxy-4-(2-methoxyethoxy)tetrahydrofuran-2-yl]ethyl] ester

> <PUBCHEM_IUPAC_INCHI>
InChI=1S/C20H33N2O11P/c1-6-30-34(27,31-7-2)15(32-13(4)23)10-14-16(24)17(29-9-8-28-5)19(33-14)22-11-12(3)18(25)21-20(22)26/h11,14-17,19,24H,6-10H2,1-5H3,(H,21,25,26)/t14?,15?,16-,17-,19-/m1/s1

> <PUBCHEM_IUPAC_INCHIKEY>
XJIVECNXBHNCBS-KUHUBOKPSA-N

> <PUBCHEM_XLOGP3_AA>
-1

> <PUBCHEM_EXACT_MASS>
508.18219687

> <PUBCHEM_MOLECULAR_FORMULA>
C20H33N2O11P

> <PUBCHEM_MOLECULAR_WEIGHT>
508.5

> <PUBCHEM_OPENEYE_CAN_SMILES>
CCOP(=O)(C(CC1C(C(C(O1)N2C=C(C(=O)NC2=O)C)OCCOC)O)OC(=O)C)OCC

> <PUBCHEM_OPENEYE_ISO_SMILES>
CCOP(=O)(C(CC1[C@H]([C@H]([C@@H](O1)N2C=C(C(=O)NC2=O)C)OCCOC)O)OC(=O)C)OCC

> <PUBCHEM_CACTVS_TPSA>
159

> <PUBCHEM_MONOISOTOPIC_WEIGHT>
508.18219687

> <PUBCHEM_TOTAL_CHARGE>
0

> <PUBCHEM_HEAVY_ATOM_COUNT>
34

> <PUBCHEM_ATOM_DEF_STEREO_COUNT>
3

> <PUBCHEM_ATOM_UDEF_STEREO_COUNT>
2

> <PUBCHEM_BOND_DEF_STEREO_COUNT>
0

> <PUBCHEM_BOND_UDEF_STEREO_COUNT>
0

> <PUBCHEM_ISOTOPIC_ATOM_COUNT>
0

> <PUBCHEM_COMPONENT_COUNT>
1

> <PUBCHEM_CACTVS_TAUTO_COUNT>
-1

> <PUBCHEM_COORDINATE_TYPE>
1
5
255

> <PUBCHEM_BONDANNOTATIONS>
18  13  6
13  21  8
13  23  8
14  23  8
14  26  8
15  19  3
20  19  3
21  24  8
24  26  8
17  3  5
16  4  5

$$$$
