 
  -OEChem-10192103562D

 44 43  0     0  0  0  0  0  0999 V2000
    7.1962    0.4050    0.0000 O   0  0  0  0  0  0  0  0  0  0  0  0
   10.6603    0.4050    0.0000 O   0  0  0  0  0  0  0  0  0  0  0  0
    8.9282   -0.5950    0.0000 O   0  0  0  0  0  0  0  0  0  0  0  0
    4.5981    0.9050    0.0000 O   0  0  0  0  0  0  0  0  0  0  0  0
   13.2583    0.9050    0.0000 O   0  0  0  0  0  0  0  0  0  0  0  0
    3.7320   -0.5950    0.0000 O   0  0  0  0  0  0  0  0  0  0  0  0
   14.1244   -0.5950    0.0000 O   0  0  0  0  0  0  0  0  0  0  0  0
    8.9282    0.4050    0.0000 C   0  0  0  0  0  0  0  0  0  0  0  0
    8.0622    0.9050    0.0000 C   0  0  0  0  0  0  0  0  0  0  0  0
    9.7942    0.9050    0.0000 C   0  0  0  0  0  0  0  0  0  0  0  0
    6.3301    0.9050    0.0000 C   0  0  0  0  0  0  0  0  0  0  0  0
   11.5263    0.9050    0.0000 C   0  0  0  0  0  0  0  0  0  0  0  0
    5.4641    0.4050    0.0000 C   0  0  0  0  0  0  0  0  0  0  0  0
   12.3923    0.4050    0.0000 C   0  0  0  0  0  0  0  0  0  0  0  0
    2.8660    0.9050    0.0000 C   0  0  0  0  0  0  0  0  0  0  0  0
   14.9904    0.9050    0.0000 C   0  0  0  0  0  0  0  0  0  0  0  0
    3.7320    0.4050    0.0000 C   0  0  0  0  0  0  0  0  0  0  0  0
   14.1244    0.4050    0.0000 C   0  0  0  0  0  0  0  0  0  0  0  0
    2.0000    0.4050    0.0000 C   0  0  0  0  0  0  0  0  0  0  0  0
   15.8564    0.4050    0.0000 C   0  0  0  0  0  0  0  0  0  0  0  0
    9.4651    0.0950    0.0000 H   0  0  0  0  0  0  0  0  0  0  0  0
    8.4607    1.3800    0.0000 H   0  0  0  0  0  0  0  0  0  0  0  0
    7.6636    1.3800    0.0000 H   0  0  0  0  0  0  0  0  0  0  0  0
   10.1928    1.3800    0.0000 H   0  0  0  0  0  0  0  0  0  0  0  0
    9.3957    1.3800    0.0000 H   0  0  0  0  0  0  0  0  0  0  0  0
    6.7287    1.3800    0.0000 H   0  0  0  0  0  0  0  0  0  0  0  0
    5.9316    1.3800    0.0000 H   0  0  0  0  0  0  0  0  0  0  0  0
   11.9248    1.3800    0.0000 H   0  0  0  0  0  0  0  0  0  0  0  0
   11.1278    1.3800    0.0000 H   0  0  0  0  0  0  0  0  0  0  0  0
    5.0656   -0.0699    0.0000 H   0  0  0  0  0  0  0  0  0  0  0  0
    5.8626   -0.0699    0.0000 H   0  0  0  0  0  0  0  0  0  0  0  0
   11.9938   -0.0699    0.0000 H   0  0  0  0  0  0  0  0  0  0  0  0
   12.7908   -0.0699    0.0000 H   0  0  0  0  0  0  0  0  0  0  0  0
    8.3913   -0.9050    0.0000 H   0  0  0  0  0  0  0  0  0  0  0  0
    3.2646    1.3800    0.0000 H   0  0  0  0  0  0  0  0  0  0  0  0
    2.4675    1.3800    0.0000 H   0  0  0  0  0  0  0  0  0  0  0  0
   15.3889    1.3800    0.0000 H   0  0  0  0  0  0  0  0  0  0  0  0
   14.5919    1.3800    0.0000 H   0  0  0  0  0  0  0  0  0  0  0  0
    1.6900    0.9419    0.0000 H   0  0  0  0  0  0  0  0  0  0  0  0
    1.4631    0.0950    0.0000 H   0  0  0  0  0  0  0  0  0  0  0  0
    2.3100   -0.1319    0.0000 H   0  0  0  0  0  0  0  0  0  0  0  0
   15.5464   -0.1319    0.0000 H   0  0  0  0  0  0  0  0  0  0  0  0
   16.3933    0.0950    0.0000 H   0  0  0  0  0  0  0  0  0  0  0  0
   16.1664    0.9419    0.0000 H   0  0  0  0  0  0  0  0  0  0  0  0
  1  9  1  0  0  0  0
  1 11  1  0  0  0  0
  2 10  1  0  0  0  0
  2 12  1  0  0  0  0
  3  8  1  0  0  0  0
  3 34  1  0  0  0  0
  4 13  1  0  0  0  0
  4 17  1  0  0  0  0
  5 14  1  0  0  0  0
  5 18  1  0  0  0  0
  6 17  2  0  0  0  0
  7 18  2  0  0  0  0
  8  9  1  0  0  0  0
  8 10  1  0  0  0  0
  8 21  1  0  0  0  0
  9 22  1  0  0  0  0
  9 23  1  0  0  0  0
 10 24  1  0  0  0  0
 10 25  1  0  0  0  0
 11 13  1  0  0  0  0
 11 26  1  0  0  0  0
 11 27  1  0  0  0  0
 12 14  1  0  0  0  0
 12 28  1  0  0  0  0
 12 29  1  0  0  0  0
 13 30  1  0  0  0  0
 13 31  1  0  0  0  0
 14 32  1  0  0  0  0
 14 33  1  0  0  0  0
 15 17  1  0  0  0  0
 15 19  1  0  0  0  0
 15 35  1  0  0  0  0
 15 36  1  0  0  0  0
 16 18  1  0  0  0  0
 16 20  1  0  0  0  0
 16 37  1  0  0  0  0
 16 38  1  0  0  0  0
 19 39  1  0  0  0  0
 19 40  1  0  0  0  0
 19 41  1  0  0  0  0
 20 42  1  0  0  0  0
 20 43  1  0  0  0  0
 20 44  1  0  0  0  0
M  END
> <PUBCHEM_COMPOUND_CID>
71373801

> <PUBCHEM_COMPOUND_CANONICALIZED>
1

> <PUBCHEM_CACTVS_COMPLEXITY>
241

> <PUBCHEM_CACTVS_HBOND_ACCEPTOR>
7

> <PUBCHEM_CACTVS_HBOND_DONOR>
1

> <PUBCHEM_CACTVS_ROTATABLE_BOND>
14

> <PUBCHEM_CACTVS_SUBSKEYS>
AAADceBwOAAAAAAAAAAAAAAAAAAAAAAAAAAAAAAAAAAAAAAAAAAAGgAACAAACBSggAICCAAABgAIAACQCAAAAAAAAAAAAAEAAAABEAAAAAACAAABAAADAAAAAAAAAAAAAAAAAAAAAAAAAAAAAAAAAAAAAA==

> <PUBCHEM_IUPAC_OPENEYE_NAME>
2-[2-hydroxy-3-(2-propanoyloxyethoxy)propoxy]ethyl propanoate

> <PUBCHEM_IUPAC_CAS_NAME>
propanoic acid 2-[2-hydroxy-3-[2-(1-oxopropoxy)ethoxy]propoxy]ethyl ester

> <PUBCHEM_IUPAC_NAME_MARKUP>
2-[2-hydroxy-3-(2-propanoyloxyethoxy)propoxy]ethyl propanoate

> <PUBCHEM_IUPAC_NAME>
2-[2-hydroxy-3-(2-propanoyloxyethoxy)propoxy]ethyl propanoate

> <PUBCHEM_IUPAC_SYSTEMATIC_NAME>
2-[2-oxidanyl-3-(2-propanoyloxyethoxy)propoxy]ethyl propanoate

> <PUBCHEM_IUPAC_TRADITIONAL_NAME>
propionic acid 2-[2-hydroxy-3-(2-propionyloxyethoxy)propoxy]ethyl ester

> <PUBCHEM_IUPAC_INCHI>
InChI=1S/C13H24O7/c1-3-12(15)19-7-5-17-9-11(14)10-18-6-8-20-13(16)4-2/h11,14H,3-10H2,1-2H3

> <PUBCHEM_IUPAC_INCHIKEY>
KJOKZSOBPXHBIO-UHFFFAOYSA-N

> <PUBCHEM_XLOGP3_AA>
0

> <PUBCHEM_EXACT_MASS>
292.15220310

> <PUBCHEM_MOLECULAR_FORMULA>
C13H24O7

> <PUBCHEM_MOLECULAR_WEIGHT>
292.33

> <PUBCHEM_OPENEYE_CAN_SMILES>
CCC(=O)OCCOCC(COCCOC(=O)CC)O

> <PUBCHEM_OPENEYE_ISO_SMILES>
CCC(=O)OCCOCC(COCCOC(=O)CC)O

> <PUBCHEM_CACTVS_TPSA>
91.3

> <PUBCHEM_MONOISOTOPIC_WEIGHT>
292.15220310

> <PUBCHEM_TOTAL_CHARGE>
0

> <PUBCHEM_HEAVY_ATOM_COUNT>
20

> <PUBCHEM_ATOM_DEF_STEREO_COUNT>
0

> <PUBCHEM_ATOM_UDEF_STEREO_COUNT>
0

> <PUBCHEM_BOND_DEF_STEREO_COUNT>
0

> <PUBCHEM_BOND_UDEF_STEREO_COUNT>
0

> <PUBCHEM_ISOTOPIC_ATOM_COUNT>
0

> <PUBCHEM_COMPONENT_COUNT>
1

> <PUBCHEM_CACTVS_TAUTO_COUNT>
-1

> <PUBCHEM_COORDINATE_TYPE>
1
5
255

$$$$
