 
  -OEChem-10192103342D

 35 34  0     0  0  0  0  0  0999 V2000
    2.7690    0.7990    0.0000 O   0  0  0  0  0  0  0  0  0  0  0  0
    2.5369   -0.0670    0.0000 O   0  0  0  0  0  0  0  0  0  0  0  0
    3.7690    1.7990    0.0000 O   0  0  0  0  0  0  0  0  0  0  0  0
    3.4030   -1.5670    0.0000 O   0  0  0  0  0  0  0  0  0  0  0  0
    5.1350    0.4330    0.0000 C   0  0  0  0  0  0  0  0  0  0  0  0
    4.2690   -0.0670    0.0000 C   0  0  0  0  0  0  0  0  0  0  0  0
    6.0010    0.9330    0.0000 C   0  0  0  0  0  0  0  0  0  0  0  0
    4.7690   -0.9330    0.0000 C   0  0  0  0  0  0  0  0  0  0  0  0
    5.1350    1.4330    0.0000 C   0  0  0  0  0  0  0  0  0  0  0  0
    5.6350   -0.4330    0.0000 C   0  0  0  0  0  0  0  0  0  0  0  0
    6.8671    0.4330    0.0000 C   0  0  0  0  0  0  0  0  0  0  0  0
    3.7690    0.7990    0.0000 C   0  0  0  0  0  0  0  0  0  0  0  0
    3.4030   -0.5670    0.0000 C   0  0  0  0  0  0  0  0  0  0  0  0
    4.2690   -1.7990    0.0000 C   0  0  0  0  0  0  0  0  0  0  0  0
    7.7331    0.9330    0.0000 C   0  0  0  0  0  0  0  0  0  0  0  0
    6.3996    1.4080    0.0000 H   0  0  0  0  0  0  0  0  0  0  0  0
    5.6025    1.4080    0.0000 H   0  0  0  0  0  0  0  0  0  0  0  0
    5.2439   -1.3315    0.0000 H   0  0  0  0  0  0  0  0  0  0  0  0
    5.2439   -0.5345    0.0000 H   0  0  0  0  0  0  0  0  0  0  0  0
    5.7550    1.4330    0.0000 H   0  0  0  0  0  0  0  0  0  0  0  0
    5.1350    2.0530    0.0000 H   0  0  0  0  0  0  0  0  0  0  0  0
    4.5150    1.4330    0.0000 H   0  0  0  0  0  0  0  0  0  0  0  0
    5.0981   -0.7430    0.0000 H   0  0  0  0  0  0  0  0  0  0  0  0
    5.9450   -0.9699    0.0000 H   0  0  0  0  0  0  0  0  0  0  0  0
    6.1720   -0.1230    0.0000 H   0  0  0  0  0  0  0  0  0  0  0  0
    6.4685   -0.0419    0.0000 H   0  0  0  0  0  0  0  0  0  0  0  0
    7.2656   -0.0419    0.0000 H   0  0  0  0  0  0  0  0  0  0  0  0
    3.7320   -1.4890    0.0000 H   0  0  0  0  0  0  0  0  0  0  0  0
    3.9590   -2.3360    0.0000 H   0  0  0  0  0  0  0  0  0  0  0  0
    4.8059   -2.1090    0.0000 H   0  0  0  0  0  0  0  0  0  0  0  0
    8.0431    0.3961    0.0000 H   0  0  0  0  0  0  0  0  0  0  0  0
    8.2700    1.2430    0.0000 H   0  0  0  0  0  0  0  0  0  0  0  0
    7.4231    1.4700    0.0000 H   0  0  0  0  0  0  0  0  0  0  0  0
    2.4590    1.3360    0.0000 H   0  0  0  0  0  0  0  0  0  0  0  0
    2.0000   -0.3770    0.0000 H   0  0  0  0  0  0  0  0  0  0  0  0
  1 12  1  0  0  0  0
  1 34  1  0  0  0  0
  2 13  1  0  0  0  0
  2 35  1  0  0  0  0
  3 12  2  0  0  0  0
  4 13  2  0  0  0  0
  5  6  1  0  0  0  0
  5  7  1  0  0  0  0
  5  9  1  0  0  0  0
  5 10  1  0  0  0  0
  6  8  1  0  0  0  0
  6 12  1  0  0  0  0
  6 13  1  0  0  0  0
  7 11  1  0  0  0  0
  7 16  1  0  0  0  0
  7 17  1  0  0  0  0
  8 14  1  0  0  0  0
  8 18  1  0  0  0  0
  8 19  1  0  0  0  0
  9 20  1  0  0  0  0
  9 21  1  0  0  0  0
  9 22  1  0  0  0  0
 10 23  1  0  0  0  0
 10 24  1  0  0  0  0
 10 25  1  0  0  0  0
 11 15  1  0  0  0  0
 11 26  1  0  0  0  0
 11 27  1  0  0  0  0
 14 28  1  0  0  0  0
 14 29  1  0  0  0  0
 14 30  1  0  0  0  0
 15 31  1  0  0  0  0
 15 32  1  0  0  0  0
 15 33  1  0  0  0  0
M  END
> <PUBCHEM_COMPOUND_CID>
88188143

> <PUBCHEM_COMPOUND_CANONICALIZED>
1

> <PUBCHEM_CACTVS_COMPLEXITY>
241

> <PUBCHEM_CACTVS_HBOND_ACCEPTOR>
4

> <PUBCHEM_CACTVS_HBOND_DONOR>
2

> <PUBCHEM_CACTVS_ROTATABLE_BOND>
6

> <PUBCHEM_CACTVS_SUBSKEYS>
AAADceBwOAAAAAAAAAAAAAAAAAAAAAAAAAAAAAAAAAAAAAAAAAAAGgAACAAADgCAgAACCAAAAgAIAACQCAAAAAAAAAAAAAEAAAAAABYIAAAAQAAFIAAAAAGIyAAPgAAAAAAAAAAAAAAAAAAAAAAAAAAAAA==

> <PUBCHEM_IUPAC_OPENEYE_NAME>
2-(1,1-dimethylbutyl)-2-ethyl-propanedioic acid

> <PUBCHEM_IUPAC_CAS_NAME>
2-ethyl-2-(2-methylpentan-2-yl)propanedioic acid

> <PUBCHEM_IUPAC_NAME_MARKUP>
2-ethyl-2-(2-methylpentan-2-yl)propanedioic acid

> <PUBCHEM_IUPAC_NAME>
2-ethyl-2-(2-methylpentan-2-yl)propanedioic acid

> <PUBCHEM_IUPAC_SYSTEMATIC_NAME>
2-ethyl-2-(2-methylpentan-2-yl)propanedioic acid

> <PUBCHEM_IUPAC_TRADITIONAL_NAME>
2-(1,1-dimethylbutyl)-2-ethyl-malonic acid

> <PUBCHEM_IUPAC_INCHI>
InChI=1S/C11H20O4/c1-5-7-10(3,4)11(6-2,8(12)13)9(14)15/h5-7H2,1-4H3,(H,12,13)(H,14,15)

> <PUBCHEM_IUPAC_INCHIKEY>
HZQVNVNWQMIGBZ-UHFFFAOYSA-N

> <PUBCHEM_XLOGP3_AA>
3

> <PUBCHEM_EXACT_MASS>
216.13615911

> <PUBCHEM_MOLECULAR_FORMULA>
C11H20O4

> <PUBCHEM_MOLECULAR_WEIGHT>
216.27

> <PUBCHEM_OPENEYE_CAN_SMILES>
CCCC(C)(C)C(CC)(C(=O)O)C(=O)O

> <PUBCHEM_OPENEYE_ISO_SMILES>
CCCC(C)(C)C(CC)(C(=O)O)C(=O)O

> <PUBCHEM_CACTVS_TPSA>
74.6

> <PUBCHEM_MONOISOTOPIC_WEIGHT>
216.13615911

> <PUBCHEM_TOTAL_CHARGE>
0

> <PUBCHEM_HEAVY_ATOM_COUNT>
15

> <PUBCHEM_ATOM_DEF_STEREO_COUNT>
0

> <PUBCHEM_ATOM_UDEF_STEREO_COUNT>
0

> <PUBCHEM_BOND_DEF_STEREO_COUNT>
0

> <PUBCHEM_BOND_UDEF_STEREO_COUNT>
0

> <PUBCHEM_ISOTOPIC_ATOM_COUNT>
0

> <PUBCHEM_COMPONENT_COUNT>
1

> <PUBCHEM_CACTVS_TAUTO_COUNT>
-1

> <PUBCHEM_COORDINATE_TYPE>
1
5
255

$$$$
