 
  -OEChem-10192104162D

 33 33  0     1  0  0  0  0  0999 V2000
    5.4641   -0.4050    0.0000 O   0  0  0  0  0  0  0  0  0  0  0  0
    7.1962    1.5950    0.0000 O   0  0  0  0  0  0  0  0  0  0  0  0
    3.7320    1.5950    0.0000 O   0  0  0  0  0  0  0  0  0  0  0  0
    5.4641    2.5950    0.0000 O   0  0  0  0  0  0  0  0  0  0  0  0
    3.7320   -1.4050    0.0000 O   0  0  0  0  0  0  0  0  0  0  0  0
    8.0622    0.0950    0.0000 O   0  0  0  0  0  0  0  0  0  0  0  0
    2.0000   -1.4050    0.0000 O   0  0  0  0  0  0  0  0  0  0  0  0
    4.5981    1.0950    0.0000 C   0  0  2  0  0  0  0  0  0  0  0  0
    5.4641    1.5950    0.0000 C   0  0  1  0  0  0  0  0  0  0  0  0
    4.5981    0.0950    0.0000 C   0  0  1  0  0  0  0  0  0  0  0  0
    6.3301    1.0950    0.0000 C   0  0  2  0  0  0  0  0  0  0  0  0
    6.3301    0.0950    0.0000 C   0  0  0  0  0  0  0  0  0  0  0  0
    3.7320   -0.4050    0.0000 C   0  0  0  0  0  0  0  0  0  0  0  0
    8.0622    1.0950    0.0000 C   0  0  0  0  0  0  0  0  0  0  0  0
    2.8660   -1.9050    0.0000 C   0  0  0  0  0  0  0  0  0  0  0  0
    8.9282    1.5950    0.0000 C   0  0  0  0  0  0  0  0  0  0  0  0
    2.8660   -2.9050    0.0000 C   0  0  0  0  0  0  0  0  0  0  0  0
    4.5981    1.7150    0.0000 H   0  0  0  0  0  0  0  0  0  0  0  0
    6.0010    1.9050    0.0000 H   0  0  0  0  0  0  0  0  0  0  0  0
    4.5981   -0.5250    0.0000 H   0  0  0  0  0  0  0  0  0  0  0  0
    6.8671    0.7850    0.0000 H   0  0  0  0  0  0  0  0  0  0  0  0
    6.5422   -0.4876    0.0000 H   0  0  0  0  0  0  0  0  0  0  0  0
    6.9407    0.2027    0.0000 H   0  0  0  0  0  0  0  0  0  0  0  0
    3.5200    0.1776    0.0000 H   0  0  0  0  0  0  0  0  0  0  0  0
    3.1215   -0.5127    0.0000 H   0  0  0  0  0  0  0  0  0  0  0  0
    3.1951    1.2850    0.0000 H   0  0  0  0  0  0  0  0  0  0  0  0
    4.9272    2.9050    0.0000 H   0  0  0  0  0  0  0  0  0  0  0  0
    9.2382    1.0581    0.0000 H   0  0  0  0  0  0  0  0  0  0  0  0
    9.4651    1.9050    0.0000 H   0  0  0  0  0  0  0  0  0  0  0  0
    8.6182    2.1319    0.0000 H   0  0  0  0  0  0  0  0  0  0  0  0
    2.2460   -2.9050    0.0000 H   0  0  0  0  0  0  0  0  0  0  0  0
    2.8660   -3.5250    0.0000 H   0  0  0  0  0  0  0  0  0  0  0  0
    3.4860   -2.9050    0.0000 H   0  0  0  0  0  0  0  0  0  0  0  0
  1 10  1  0  0  0  0
  1 12  1  0  0  0  0
 11  2  1  1  0  0  0
  2 14  1  0  0  0  0
  8  3  1  6  0  0  0
  3 26  1  0  0  0  0
  9  4  1  6  0  0  0
  4 27  1  0  0  0  0
  5 13  1  0  0  0  0
  5 15  1  0  0  0  0
  6 14  2  0  0  0  0
  7 15  2  0  0  0  0
  8  9  1  0  0  0  0
  8 10  1  0  0  0  0
  8 18  1  0  0  0  0
  9 11  1  0  0  0  0
  9 19  1  0  0  0  0
 10 13  1  6  0  0  0
 10 20  1  0  0  0  0
 11 12  1  0  0  0  0
 11 21  1  0  0  0  0
 12 22  1  0  0  0  0
 12 23  1  0  0  0  0
 13 24  1  0  0  0  0
 13 25  1  0  0  0  0
 14 16  1  0  0  0  0
 15 17  1  0  0  0  0
 16 28  1  0  0  0  0
 16 29  1  0  0  0  0
 16 30  1  0  0  0  0
 17 31  1  0  0  0  0
 17 32  1  0  0  0  0
 17 33  1  0  0  0  0
M  END
> <PUBCHEM_COMPOUND_CID>
21586512

> <PUBCHEM_COMPOUND_CANONICALIZED>
1

> <PUBCHEM_CACTVS_COMPLEXITY>
290

> <PUBCHEM_CACTVS_HBOND_ACCEPTOR>
7

> <PUBCHEM_CACTVS_HBOND_DONOR>
2

> <PUBCHEM_CACTVS_ROTATABLE_BOND>
5

> <PUBCHEM_CACTVS_SUBSKEYS>
AAADceBwOAAAAAAAAAAAAAAAAAAAAAAAAAAkAAAAAAAAAAAAAAAAGgAACAAACBSggAICCAAABgAIAACQCAAAAAAAAAAAAAAAAAABEAIAAAACQAAFAAADAAHAYAwAAAAAAAAAAAAAAAAAAAAAAAAAAAAAAA==

> <PUBCHEM_IUPAC_OPENEYE_NAME>
[(2R,3R,4S,5S)-5-acetoxy-3,4-dihydroxy-tetrahydropyran-2-yl]methyl acetate

> <PUBCHEM_IUPAC_CAS_NAME>
acetic acid [(2R,3R,4S,5S)-5-acetyloxy-3,4-dihydroxy-2-oxanyl]methyl ester

> <PUBCHEM_IUPAC_NAME_MARKUP>
[(2<I>R</I>,3<I>R</I>,4<I>S</I>,5<I>S</I>)-5-acetyloxy-3,4-dihydroxyoxan-2-yl]methyl acetate

> <PUBCHEM_IUPAC_NAME>
[(2R,3R,4S,5S)-5-acetyloxy-3,4-dihydroxyoxan-2-yl]methyl acetate

> <PUBCHEM_IUPAC_SYSTEMATIC_NAME>
[(2R,3R,4S,5S)-5-acetyloxy-3,4-bis(oxidanyl)oxan-2-yl]methyl ethanoate

> <PUBCHEM_IUPAC_TRADITIONAL_NAME>
acetic acid [(2R,3R,4S,5S)-5-acetoxy-3,4-dihydroxy-tetrahydropyran-2-yl]methyl ester

> <PUBCHEM_IUPAC_INCHI>
InChI=1S/C10H16O7/c1-5(11)15-3-7-9(13)10(14)8(4-16-7)17-6(2)12/h7-10,13-14H,3-4H2,1-2H3/t7-,8+,9+,10-/m1/s1

> <PUBCHEM_IUPAC_INCHIKEY>
AANAZAKXHCRXNS-XFWSIPNHSA-N

> <PUBCHEM_XLOGP3_AA>
-1.5

> <PUBCHEM_EXACT_MASS>
248.08960285

> <PUBCHEM_MOLECULAR_FORMULA>
C10H16O7

> <PUBCHEM_MOLECULAR_WEIGHT>
248.23

> <PUBCHEM_OPENEYE_CAN_SMILES>
CC(=O)OCC1C(C(C(CO1)OC(=O)C)O)O

> <PUBCHEM_OPENEYE_ISO_SMILES>
CC(=O)OC[C@@H]1[C@@H]([C@@H]([C@H](CO1)OC(=O)C)O)O

> <PUBCHEM_CACTVS_TPSA>
102

> <PUBCHEM_MONOISOTOPIC_WEIGHT>
248.08960285

> <PUBCHEM_TOTAL_CHARGE>
0

> <PUBCHEM_HEAVY_ATOM_COUNT>
17

> <PUBCHEM_ATOM_DEF_STEREO_COUNT>
4

> <PUBCHEM_ATOM_UDEF_STEREO_COUNT>
0

> <PUBCHEM_BOND_DEF_STEREO_COUNT>
0

> <PUBCHEM_BOND_UDEF_STEREO_COUNT>
0

> <PUBCHEM_ISOTOPIC_ATOM_COUNT>
0

> <PUBCHEM_COMPONENT_COUNT>
1

> <PUBCHEM_CACTVS_TAUTO_COUNT>
-1

> <PUBCHEM_COORDINATE_TYPE>
1
5
255

> <PUBCHEM_BONDANNOTATIONS>
10  13  6
11  2  5
8  3  6
9  4  6

$$$$
