 
  -OEChem-10192104072D

 85 89  0     1  0  0  0  0  0999 V2000
    8.7036   -0.5895    0.0000 O   0  0  0  0  0  0  0  0  0  0  0  0
   10.9841    1.4638    0.0000 O   0  0  0  0  0  0  0  0  0  0  0  0
    6.8671   -0.5950    0.0000 O   0  0  0  0  0  0  0  0  0  0  0  0
    5.1350   -0.5950    0.0000 O   0  0  0  0  0  0  0  0  0  0  0  0
   11.0923   -1.5247    0.0000 O   0  0  0  0  0  0  0  0  0  0  0  0
    5.1350    0.4050    0.0000 O   0  0  0  0  0  0  0  0  0  0  0  0
    6.8671    3.4050    0.0000 O   0  0  0  0  0  0  0  0  0  0  0  0
   12.8261   -2.5217    0.0000 O   0  0  0  0  0  0  0  0  0  0  0  0
   14.5530    0.4813    0.0000 O   0  0  0  0  0  0  0  0  0  0  0  0
    6.8671   -2.5950    0.0000 O   0  0  0  0  0  0  0  0  0  0  0  0
    5.1350    2.4050    0.0000 O   0  0  0  0  0  0  0  0  0  0  0  0
    5.1350   -3.5950    0.0000 O   0  0  0  0  0  0  0  0  0  0  0  0
    3.4030   -2.5950    0.0000 O   0  0  0  0  0  0  0  0  0  0  0  0
   14.5564   -1.5187    0.0000 O   0  0  0  0  0  0  0  0  0  0  0  0
    2.5369   -1.0950    0.0000 O   0  0  0  0  0  0  0  0  0  0  0  0
    9.5127    0.8117    0.0000 C   0  0  1  0  0  0  0  0  0  0  0  0
   10.1818    0.0686    0.0000 C   0  0  1  0  0  0  0  0  0  0  0  0
    8.5991    0.4050    0.0000 C   0  0  1  0  0  0  0  0  0  0  0  0
   11.0889    0.4753    0.0000 C   0  0  2  0  0  0  0  0  0  0  0  0
    9.6818   -0.7974    0.0000 C   0  0  0  0  0  0  0  0  0  0  0  0
   10.0119    1.6713    0.0000 C   0  0  0  0  0  0  0  0  0  0  0  0
    7.7331    0.9050    0.0000 C   0  0  0  0  0  0  0  0  0  0  0  0
   11.9558   -0.0232    0.0000 C   0  0  0  0  0  0  0  0  0  0  0  0
    6.8671    0.4050    0.0000 C   0  0  0  0  0  0  0  0  0  0  0  0
    7.7331    1.9050    0.0000 C   0  0  0  0  0  0  0  0  0  0  0  0
   11.9575   -1.0232    0.0000 C   0  0  0  0  0  0  0  0  0  0  0  0
   12.8209    0.4783    0.0000 C   0  0  0  0  0  0  0  0  0  0  0  0
    6.0010    0.9050    0.0000 C   0  0  0  0  0  0  0  0  0  0  0  0
    6.0010   -1.0950    0.0000 C   0  0  2  0  0  0  0  0  0  0  0  0
    6.8671    2.4050    0.0000 C   0  0  0  0  0  0  0  0  0  0  0  0
   12.8244   -1.5217    0.0000 C   0  0  0  0  0  0  0  0  0  0  0  0
    6.0010   -2.0950    0.0000 C   0  0  1  0  0  0  0  0  0  0  0  0
   13.6878   -0.0202    0.0000 C   0  0  0  0  0  0  0  0  0  0  0  0
    6.0010    1.9050    0.0000 C   0  0  0  0  0  0  0  0  0  0  0  0
    5.1350   -2.5950    0.0000 C   0  0  2  0  0  0  0  0  0  0  0  0
    4.2690   -2.0950    0.0000 C   0  0  1  0  0  0  0  0  0  0  0  0
    4.2690   -1.0950    0.0000 C   0  0  1  0  0  0  0  0  0  0  0  0
   13.6895   -1.0202    0.0000 C   0  0  0  0  0  0  0  0  0  0  0  0
    3.4030   -0.5950    0.0000 C   0  0  0  0  0  0  0  0  0  0  0  0
    4.2690    0.9050    0.0000 C   0  0  0  0  0  0  0  0  0  0  0  0
    7.7331    3.9050    0.0000 C   0  0  0  0  0  0  0  0  0  0  0  0
   13.6930   -3.0202    0.0000 C   0  0  0  0  0  0  0  0  0  0  0  0
   14.5512    1.4813    0.0000 C   0  0  0  0  0  0  0  0  0  0  0  0
    5.1350    3.4050    0.0000 C   0  0  0  0  0  0  0  0  0  0  0  0
   15.4216   -1.0172    0.0000 C   0  0  0  0  0  0  0  0  0  0  0  0
    8.9447    1.4442    0.0000 H   0  0  0  0  0  0  0  0  0  0  0  0
   10.7514   -0.5623    0.0000 H   0  0  0  0  0  0  0  0  0  0  0  0
    7.8862   -0.0579    0.0000 H   0  0  0  0  0  0  0  0  0  0  0  0
   11.8011    0.9391    0.0000 H   0  0  0  0  0  0  0  0  0  0  0  0
    9.4902   -1.3871    0.0000 H   0  0  0  0  0  0  0  0  0  0  0  0
   10.2482   -1.0496    0.0000 H   0  0  0  0  0  0  0  0  0  0  0  0
   10.2044    2.2607    0.0000 H   0  0  0  0  0  0  0  0  0  0  0  0
    9.4460    1.9247    0.0000 H   0  0  0  0  0  0  0  0  0  0  0  0
    8.2700    2.2150    0.0000 H   0  0  0  0  0  0  0  0  0  0  0  0
   12.8198    1.0983    0.0000 H   0  0  0  0  0  0  0  0  0  0  0  0
    6.0010   -0.4750    0.0000 H   0  0  0  0  0  0  0  0  0  0  0  0
    6.0010   -2.7150    0.0000 H   0  0  0  0  0  0  0  0  0  0  0  0
    4.5981   -2.9050    0.0000 H   0  0  0  0  0  0  0  0  0  0  0  0
    4.2690   -2.7150    0.0000 H   0  0  0  0  0  0  0  0  0  0  0  0
    4.2690   -0.4750    0.0000 H   0  0  0  0  0  0  0  0  0  0  0  0
   11.0934   -2.1447    0.0000 H   0  0  0  0  0  0  0  0  0  0  0  0
    3.8015   -0.1201    0.0000 H   0  0  0  0  0  0  0  0  0  0  0  0
    3.0044   -0.1201    0.0000 H   0  0  0  0  0  0  0  0  0  0  0  0
    6.8671   -3.2150    0.0000 H   0  0  0  0  0  0  0  0  0  0  0  0
    4.5981   -3.9050    0.0000 H   0  0  0  0  0  0  0  0  0  0  0  0
    3.4030   -3.2150    0.0000 H   0  0  0  0  0  0  0  0  0  0  0  0
    4.5790    1.4419    0.0000 H   0  0  0  0  0  0  0  0  0  0  0  0
    3.7320    1.2150    0.0000 H   0  0  0  0  0  0  0  0  0  0  0  0
    3.9590    0.3681    0.0000 H   0  0  0  0  0  0  0  0  0  0  0  0
    8.0431    3.3681    0.0000 H   0  0  0  0  0  0  0  0  0  0  0  0
    8.2700    4.2150    0.0000 H   0  0  0  0  0  0  0  0  0  0  0  0
    7.4231    4.4419    0.0000 H   0  0  0  0  0  0  0  0  0  0  0  0
   13.3839   -3.5577    0.0000 H   0  0  0  0  0  0  0  0  0  0  0  0
   14.2305   -3.3293    0.0000 H   0  0  0  0  0  0  0  0  0  0  0  0
   14.0021   -2.4827    0.0000 H   0  0  0  0  0  0  0  0  0  0  0  0
   15.1712    1.4823    0.0000 H   0  0  0  0  0  0  0  0  0  0  0  0
   14.5502    2.1013    0.0000 H   0  0  0  0  0  0  0  0  0  0  0  0
   13.9312    1.4802    0.0000 H   0  0  0  0  0  0  0  0  0  0  0  0
    5.7550    3.4050    0.0000 H   0  0  0  0  0  0  0  0  0  0  0  0
    5.1350    4.0250    0.0000 H   0  0  0  0  0  0  0  0  0  0  0  0
    4.5150    3.4050    0.0000 H   0  0  0  0  0  0  0  0  0  0  0  0
    2.0000   -0.7850    0.0000 H   0  0  0  0  0  0  0  0  0  0  0  0
   15.7325   -1.5536    0.0000 H   0  0  0  0  0  0  0  0  0  0  0  0
   15.9580   -0.7063    0.0000 H   0  0  0  0  0  0  0  0  0  0  0  0
   15.1107   -0.4808    0.0000 H   0  0  0  0  0  0  0  0  0  0  0  0
  1 18  1  0  0  0  0
  1 20  1  0  0  0  0
  2 19  1  0  0  0  0
  2 21  1  0  0  0  0
  3 24  1  0  0  0  0
 29  3  1  1  0  0  0
  4 29  1  0  0  0  0
  4 37  1  0  0  0  0
  5 26  1  0  0  0  0
  5 61  1  0  0  0  0
  6 28  1  0  0  0  0
  6 40  1  0  0  0  0
  7 30  1  0  0  0  0
  7 41  1  0  0  0  0
  8 31  1  0  0  0  0
  8 42  1  0  0  0  0
  9 33  1  0  0  0  0
  9 43  1  0  0  0  0
 32 10  1  6  0  0  0
 10 64  1  0  0  0  0
 11 34  1  0  0  0  0
 11 44  1  0  0  0  0
 35 12  1  1  0  0  0
 12 65  1  0  0  0  0
 36 13  1  6  0  0  0
 13 66  1  0  0  0  0
 14 38  1  0  0  0  0
 14 45  1  0  0  0  0
 15 39  1  0  0  0  0
 15 82  1  0  0  0  0
 16 17  1  0  0  0  0
 16 18  1  0  0  0  0
 16 21  1  0  0  0  0
 16 46  1  6  0  0  0
 17 19  1  0  0  0  0
 17 20  1  0  0  0  0
 17 47  1  6  0  0  0
 18 22  1  0  0  0  0
 18 48  1  1  0  0  0
 19 23  1  0  0  0  0
 19 49  1  6  0  0  0
 20 50  1  0  0  0  0
 20 51  1  0  0  0  0
 21 52  1  0  0  0  0
 21 53  1  0  0  0  0
 22 24  1  0  0  0  0
 22 25  2  0  0  0  0
 23 26  1  0  0  0  0
 23 27  2  0  0  0  0
 24 28  2  0  0  0  0
 25 30  1  0  0  0  0
 25 54  1  0  0  0  0
 26 31  2  0  0  0  0
 27 33  1  0  0  0  0
 27 55  1  0  0  0  0
 28 34  1  0  0  0  0
 29 32  1  0  0  0  0
 29 56  1  0  0  0  0
 30 34  2  0  0  0  0
 31 38  1  0  0  0  0
 32 35  1  0  0  0  0
 32 57  1  0  0  0  0
 33 38  2  0  0  0  0
 35 36  1  0  0  0  0
 35 58  1  0  0  0  0
 36 37  1  0  0  0  0
 36 59  1  0  0  0  0
 37 39  1  1  0  0  0
 37 60  1  0  0  0  0
 39 62  1  0  0  0  0
 39 63  1  0  0  0  0
 40 67  1  0  0  0  0
 40 68  1  0  0  0  0
 40 69  1  0  0  0  0
 41 70  1  0  0  0  0
 41 71  1  0  0  0  0
 41 72  1  0  0  0  0
 42 73  1  0  0  0  0
 42 74  1  0  0  0  0
 42 75  1  0  0  0  0
 43 76  1  0  0  0  0
 43 77  1  0  0  0  0
 43 78  1  0  0  0  0
 44 79  1  0  0  0  0
 44 80  1  0  0  0  0
 44 81  1  0  0  0  0
 45 83  1  0  0  0  0
 45 84  1  0  0  0  0
 45 85  1  0  0  0  0
M  END
> <PUBCHEM_COMPOUND_CID>
132566266

> <PUBCHEM_COMPOUND_CANONICALIZED>
1

> <PUBCHEM_CACTVS_COMPLEXITY>
930

> <PUBCHEM_CACTVS_HBOND_ACCEPTOR>
15

> <PUBCHEM_CACTVS_HBOND_DONOR>
5

> <PUBCHEM_CACTVS_ROTATABLE_BOND>
11

> <PUBCHEM_CACTVS_SUBSKEYS>
AAADcfB4PAAAAAAAAAAAAAAAAAAAASJAAAA0YIAAAAASAAABQAAAGgAACAAADRSwmAMyDoAABgCAAiBCAAACCAAgIAAAiAAGiIgdNyKGMRqieCOlwBUPuAfA4PwOoQABCAAIQABCAAIQABCAAAAAAAAAAA==

> <PUBCHEM_IUPAC_OPENEYE_NAME>
(2S,3R,4S,5S,6R)-2-[6-[(3R,3aR,6S,6aR)-3-(2-hydroxy-3,4,5-trimethoxy-phenyl)-1,3,3a,4,6,6a-hexahydrofuro[3,4-c]furan-6-yl]-2,3,4-trimethoxy-phenoxy]-6-(hydroxymethyl)tetrahydropyran-3,4,5-triol

> <PUBCHEM_IUPAC_CAS_NAME>
(2S,3R,4S,5S,6R)-2-[6-[(3R,3aR,6S,6aR)-3-(2-hydroxy-3,4,5-trimethoxyphenyl)-1,3,3a,4,6,6a-hexahydrofuro[3,4-c]furan-6-yl]-2,3,4-trimethoxyphenoxy]-6-(hydroxymethyl)oxane-3,4,5-triol

> <PUBCHEM_IUPAC_NAME_MARKUP>
(2<I>S</I>,3<I>R</I>,4<I>S</I>,5<I>S</I>,6<I>R</I>)-2-[6-[(3<I>R</I>,3<I>a</I><I>R</I>,6<I>S</I>,6<I>a</I><I>R</I>)-3-(2-hydroxy-3,4,5-trimethoxyphenyl)-1,3,3<I>a</I>,4,6,6<I>a</I>-hexahydrofuro[3,4-c]furan-6-yl]-2,3,4-trimethoxyphenoxy]-6-(hydroxymethyl)oxane-3,4,5-triol

> <PUBCHEM_IUPAC_NAME>
(2S,3R,4S,5S,6R)-2-[6-[(3R,3aR,6S,6aR)-3-(2-hydroxy-3,4,5-trimethoxyphenyl)-1,3,3a,4,6,6a-hexahydrofuro[3,4-c]furan-6-yl]-2,3,4-trimethoxyphenoxy]-6-(hydroxymethyl)oxane-3,4,5-triol

> <PUBCHEM_IUPAC_SYSTEMATIC_NAME>
(2S,3R,4S,5S,6R)-2-[6-[(3R,3aR,6S,6aR)-3-(3,4,5-trimethoxy-2-oxidanyl-phenyl)-1,3,3a,4,6,6a-hexahydrofuro[3,4-c]furan-6-yl]-2,3,4-trimethoxy-phenoxy]-6-(hydroxymethyl)oxane-3,4,5-triol

> <PUBCHEM_IUPAC_TRADITIONAL_NAME>
(2S,3R,4S,5S,6R)-2-[6-[(3R,3aR,6S,6aR)-3-(2-hydroxy-3,4,5-trimethoxy-phenyl)-1,3,3a,4,6,6a-hexahydrofuro[3,4-c]furan-6-yl]-2,3,4-trimethoxy-phenoxy]-6-methylol-tetrahydropyran-3,4,5-triol

> <PUBCHEM_IUPAC_INCHI>
InChI=1S/C30H40O15/c1-36-16-7-12(19(32)28(40-5)26(16)38-3)23-14-10-43-24(15(14)11-42-23)13-8-17(37-2)27(39-4)29(41-6)25(13)45-30-22(35)21(34)20(33)18(9-31)44-30/h7-8,14-15,18,20-24,30-35H,9-11H2,1-6H3/t14-,15-,18+,20+,21-,22+,23-,24+,30-/m0/s1

> <PUBCHEM_IUPAC_INCHIKEY>
QFPMXBBTWJWKGV-ZLHNRZQFSA-N

> <PUBCHEM_XLOGP3_AA>
0.4

> <PUBCHEM_EXACT_MASS>
640.23672056

> <PUBCHEM_MOLECULAR_FORMULA>
C30H40O15

> <PUBCHEM_MOLECULAR_WEIGHT>
640.6

> <PUBCHEM_OPENEYE_CAN_SMILES>
COC1=C(C(=C(C(=C1)C2C3COC(C3CO2)C4=CC(=C(C(=C4OC5C(C(C(C(O5)CO)O)O)O)OC)OC)OC)O)OC)OC

> <PUBCHEM_OPENEYE_ISO_SMILES>
COC1=C(C(=C(C(=C1)[C@H]2[C@H]3CO[C@@H]([C@H]3CO2)C4=CC(=C(C(=C4O[C@H]5[C@@H]([C@H]([C@@H]([C@H](O5)CO)O)O)O)OC)OC)OC)O)OC)OC

> <PUBCHEM_CACTVS_TPSA>
193

> <PUBCHEM_MONOISOTOPIC_WEIGHT>
640.23672056

> <PUBCHEM_TOTAL_CHARGE>
0

> <PUBCHEM_HEAVY_ATOM_COUNT>
45

> <PUBCHEM_ATOM_DEF_STEREO_COUNT>
9

> <PUBCHEM_ATOM_UDEF_STEREO_COUNT>
0

> <PUBCHEM_BOND_DEF_STEREO_COUNT>
0

> <PUBCHEM_BOND_UDEF_STEREO_COUNT>
0

> <PUBCHEM_ISOTOPIC_ATOM_COUNT>
0

> <PUBCHEM_COMPONENT_COUNT>
1

> <PUBCHEM_CACTVS_TAUTO_COUNT>
-1

> <PUBCHEM_COORDINATE_TYPE>
1
5
255

> <PUBCHEM_BONDANNOTATIONS>
32  10  6
35  12  5
36  13  6
16  46  6
17  47  6
18  48  5
19  49  6
22  24  8
22  25  8
23  26  8
23  27  8
24  28  8
25  30  8
26  31  8
27  33  8
28  34  8
29  3  5
30  34  8
31  38  8
33  38  8
37  39  5

$$$$
