 
  -OEChem-10192104102D

 55 58  0     1  0  0  0  0  0999 V2000
    8.4244    3.0426    0.0000 O   0  0  0  0  0  0  0  0  0  0  0  0
    2.3052   -2.7832    0.0000 O   0  0  0  0  0  0  0  0  0  0  0  0
    3.8128   -3.6360    0.0000 O   0  0  0  0  0  0  0  0  0  0  0  0
    6.5090   -0.2923    0.0000 C   0  0  2  0  0  0  0  0  0  0  0  0
    5.6405    0.2034    0.0000 C   0  0  3  0  0  0  0  0  0  0  0  0
    4.7330   -0.3080    0.0000 C   0  0  1  0  0  0  0  0  0  0  0  0
    7.1606    1.8582    0.0000 C   0  0  1  0  0  0  0  0  0  0  0  0
    6.4845    0.8891    0.0000 C   0  0  0  0  0  0  0  0  0  0  0  0
    4.7302   -1.3496    0.0000 C   0  0  2  0  0  0  0  0  0  0  0  0
    7.4380    0.0777    0.0000 C   0  0  0  0  0  0  0  0  0  0  0  0
    6.5302   -1.3337    0.0000 C   0  0  0  0  0  0  0  0  0  0  0  0
    5.4865    1.1915    0.0000 C   0  0  0  0  0  0  0  0  0  0  0  0
    7.7280    1.0348    0.0000 C   0  0  0  0  0  0  0  0  0  0  0  0
    5.6349   -1.8659    0.0000 C   0  0  0  0  0  0  0  0  0  0  0  0
    6.1630    1.9279    0.0000 C   0  0  0  0  0  0  0  0  0  0  0  0
    3.7975   -1.9040    0.0000 C   0  0  2  0  0  0  0  0  0  0  0  0
    3.8034    0.2515    0.0000 C   0  0  0  0  0  0  0  0  0  0  0  0
    4.7358    0.6920    0.0000 C   0  0  0  0  0  0  0  0  0  0  0  0
    2.8552   -1.3662    0.0000 C   0  0  0  0  0  0  0  0  0  0  0  0
    2.8582   -0.2812    0.0000 C   0  0  0  0  0  0  0  0  0  0  0  0
    7.4506    2.8152    0.0000 C   0  0  0  0  0  0  0  0  0  0  0  0
    4.3052   -2.7655    0.0000 C   0  0  0  0  0  0  0  0  0  0  0  0
    3.3052   -2.7744    0.0000 C   0  0  0  0  0  0  0  0  0  0  0  0
    6.1510    0.5552    0.0000 H   0  0  0  0  0  0  0  0  0  0  0  0
    6.1103    1.3834    0.0000 H   0  0  0  0  0  0  0  0  0  0  0  0
    5.8988    0.6856    0.0000 H   0  0  0  0  0  0  0  0  0  0  0  0
    4.7377   -2.1996    0.0000 H   0  0  0  0  0  0  0  0  0  0  0  0
    7.5335   -0.5349    0.0000 H   0  0  0  0  0  0  0  0  0  0  0  0
    8.0565    0.0345    0.0000 H   0  0  0  0  0  0  0  0  0  0  0  0
    6.7512   -1.9130    0.0000 H   0  0  0  0  0  0  0  0  0  0  0  0
    7.1388   -1.2151    0.0000 H   0  0  0  0  0  0  0  0  0  0  0  0
    5.1347    1.7020    0.0000 H   0  0  0  0  0  0  0  0  0  0  0  0
    4.9105    0.9621    0.0000 H   0  0  0  0  0  0  0  0  0  0  0  0
    8.2665    0.7274    0.0000 H   0  0  0  0  0  0  0  0  0  0  0  0
    8.1475    1.4914    0.0000 H   0  0  0  0  0  0  0  0  0  0  0  0
    5.2399   -2.3438    0.0000 H   0  0  0  0  0  0  0  0  0  0  0  0
    6.0382   -2.3368    0.0000 H   0  0  0  0  0  0  0  0  0  0  0  0
    6.3428    2.5213    0.0000 H   0  0  0  0  0  0  0  0  0  0  0  0
    5.6246    2.2352    0.0000 H   0  0  0  0  0  0  0  0  0  0  0  0
    4.2093    0.7202    0.0000 H   0  0  0  0  0  0  0  0  0  0  0  0
    3.4111    0.7316    0.0000 H   0  0  0  0  0  0  0  0  0  0  0  0
    5.3557    0.6904    0.0000 H   0  0  0  0  0  0  0  0  0  0  0  0
    4.7374    1.3120    0.0000 H   0  0  0  0  0  0  0  0  0  0  0  0
    4.1158    0.6937    0.0000 H   0  0  0  0  0  0  0  0  0  0  0  0
    2.2446   -1.2584    0.0000 H   0  0  0  0  0  0  0  0  0  0  0  0
    2.6446   -1.9493    0.0000 H   0  0  0  0  0  0  0  0  0  0  0  0
    2.6507    0.3031    0.0000 H   0  0  0  0  0  0  0  0  0  0  0  0
    2.2470   -0.3856    0.0000 H   0  0  0  0  0  0  0  0  0  0  0  0
    7.4166    3.4343    0.0000 H   0  0  0  0  0  0  0  0  0  0  0  0
    6.8350    2.8892    0.0000 H   0  0  0  0  0  0  0  0  0  0  0  0
    3.7710   -3.0803    0.0000 H   0  0  0  0  0  0  0  0  0  0  0  0
    4.6199   -3.2997    0.0000 H   0  0  0  0  0  0  0  0  0  0  0  0
    4.8393   -2.4508    0.0000 H   0  0  0  0  0  0  0  0  0  0  0  0
    8.6042    3.6360    0.0000 H   0  0  0  0  0  0  0  0  0  0  0  0
    2.0000   -3.3229    0.0000 H   0  0  0  0  0  0  0  0  0  0  0  0
  1 21  1  0  0  0  0
  1 54  1  0  0  0  0
  2 23  1  0  0  0  0
  2 55  1  0  0  0  0
  3 23  2  0  0  0  0
  4  5  1  0  0  0  0
  4  8  1  0  0  0  0
  4 10  1  0  0  0  0
  4 11  1  1  0  0  0
  5  6  1  0  0  0  0
  5 12  1  0  0  0  0
  5 24  1  0  0  0  0
  6  9  1  0  0  0  0
  6 17  1  0  0  0  0
  6 18  1  6  0  0  0
  7  8  1  0  0  0  0
  7 13  1  0  0  0  0
  7 15  1  0  0  0  0
  7 21  1  1  0  0  0
  8 25  1  0  0  0  0
  8 26  1  0  0  0  0
  9 14  1  0  0  0  0
  9 16  1  0  0  0  0
  9 27  1  1  0  0  0
 10 13  1  0  0  0  0
 10 28  1  0  0  0  0
 10 29  1  0  0  0  0
 11 14  1  0  0  0  0
 11 30  1  0  0  0  0
 11 31  1  0  0  0  0
 12 15  1  0  0  0  0
 12 32  1  0  0  0  0
 12 33  1  0  0  0  0
 13 34  1  0  0  0  0
 13 35  1  0  0  0  0
 14 36  1  0  0  0  0
 14 37  1  0  0  0  0
 15 38  1  0  0  0  0
 15 39  1  0  0  0  0
 16 19  1  0  0  0  0
 16 22  1  1  0  0  0
 16 23  1  0  0  0  0
 17 20  1  0  0  0  0
 17 40  1  0  0  0  0
 17 41  1  0  0  0  0
 18 42  1  0  0  0  0
 18 43  1  0  0  0  0
 18 44  1  0  0  0  0
 19 20  1  0  0  0  0
 19 45  1  0  0  0  0
 19 46  1  0  0  0  0
 20 47  1  0  0  0  0
 20 48  1  0  0  0  0
 21 49  1  0  0  0  0
 21 50  1  0  0  0  0
 22 51  1  0  0  0  0
 22 52  1  0  0  0  0
 22 53  1  0  0  0  0
M  END
> <PUBCHEM_COMPOUND_CID>
57330188

> <PUBCHEM_COMPOUND_CANONICALIZED>
1

> <PUBCHEM_CACTVS_COMPLEXITY>
531

> <PUBCHEM_CACTVS_HBOND_ACCEPTOR>
3

> <PUBCHEM_CACTVS_HBOND_DONOR>
2

> <PUBCHEM_CACTVS_ROTATABLE_BOND>
2

> <PUBCHEM_CACTVS_SUBSKEYS>
AAADcfB4MAAAAAAAAAAAAAAAAAAAAYAAAAAwYMAABgAAAADAAAAAGgAACAAADwCggAICCAAAAgAIAACQCAAAAAAAAAAAAAEAAAAAEBIAAAAAQAAEAAAAAAGIyPCPgAAAAAAAAACAAAQAACAAAQAAAAAAAA==

> <PUBCHEM_IUPAC_OPENEYE_NAME>
(1S,4S,5R,9S,13S)-13-(hydroxymethyl)-5,9-dimethyl-tetracyclo[11.2.1.01,10.04,9]hexadecane-5-carboxylic acid

> <PUBCHEM_IUPAC_CAS_NAME>
(1S,4S,5R,9S,13S)-13-(hydroxymethyl)-5,9-dimethyl-5-tetracyclo[11.2.1.01,10.04,9]hexadecanecarboxylic acid

> <PUBCHEM_IUPAC_NAME_MARKUP>
(1<I>S</I>,4<I>S</I>,5<I>R</I>,9<I>S</I>,13<I>S</I>)-13-(hydroxymethyl)-5,9-dimethyltetracyclo[11.2.1.0<SUP>1,10</SUP>.0<SUP>4,9</SUP>]hexadecane-5-carboxylic acid

> <PUBCHEM_IUPAC_NAME>
(1S,4S,5R,9S,13S)-13-(hydroxymethyl)-5,9-dimethyltetracyclo[11.2.1.01,10.04,9]hexadecane-5-carboxylic acid

> <PUBCHEM_IUPAC_SYSTEMATIC_NAME>
(1S,4S,5R,9S,13S)-13-(hydroxymethyl)-5,9-dimethyl-tetracyclo[11.2.1.01,10.04,9]hexadecane-5-carboxylic acid

> <PUBCHEM_IUPAC_TRADITIONAL_NAME>
(1S,4S,5R,9S,13S)-5,9-dimethyl-13-methylol-tetracyclo[11.2.1.01,10.04,9]hexadecane-5-carboxylic acid

> <PUBCHEM_IUPAC_INCHI>
InChI=1S/C20H32O3/c1-17-6-3-7-18(2,16(22)23)14(17)5-9-20-11-10-19(12-20,13-21)8-4-15(17)20/h14-15,21H,3-13H2,1-2H3,(H,22,23)/t14-,15?,17+,18+,19-,20-/m0/s1

> <PUBCHEM_IUPAC_INCHIKEY>
BXFIEJRKFNRCBL-CUAKYQOXSA-N

> <PUBCHEM_XLOGP3_AA>
4.6

> <PUBCHEM_EXACT_MASS>
320.23514488

> <PUBCHEM_MOLECULAR_FORMULA>
C20H32O3

> <PUBCHEM_MOLECULAR_WEIGHT>
320.5

> <PUBCHEM_OPENEYE_CAN_SMILES>
CC12CCCC(C1CCC34C2CCC(C3)(CC4)CO)(C)C(=O)O

> <PUBCHEM_OPENEYE_ISO_SMILES>
C[C@@]12CCC[C@@]([C@H]1CC[C@@]34C2CC[C@@](C3)(CC4)CO)(C)C(=O)O

> <PUBCHEM_CACTVS_TPSA>
57.5

> <PUBCHEM_MONOISOTOPIC_WEIGHT>
320.23514488

> <PUBCHEM_TOTAL_CHARGE>
0

> <PUBCHEM_HEAVY_ATOM_COUNT>
23

> <PUBCHEM_ATOM_DEF_STEREO_COUNT>
5

> <PUBCHEM_ATOM_UDEF_STEREO_COUNT>
1

> <PUBCHEM_BOND_DEF_STEREO_COUNT>
0

> <PUBCHEM_BOND_UDEF_STEREO_COUNT>
0

> <PUBCHEM_ISOTOPIC_ATOM_COUNT>
0

> <PUBCHEM_COMPONENT_COUNT>
1

> <PUBCHEM_CACTVS_TAUTO_COUNT>
-1

> <PUBCHEM_COORDINATE_TYPE>
1
5
255

> <PUBCHEM_BONDANNOTATIONS>
16  22  5
4  11  5
5  12  3
6  18  6
7  21  5
9  27  5

$$$$
