 
  -OEChem-10192104272D

 51 53  0     1  0  0  0  0  0999 V2000
    5.1078   -0.0064    0.0000 O   0  0  0  0  0  0  0  0  0  0  0  0
    4.1847   -3.5942    0.0000 O   0  0  0  0  0  0  0  0  0  0  0  0
    7.6488   -3.5942    0.0000 O   0  0  0  0  0  0  0  0  0  0  0  0
    5.9168   -4.5942    0.0000 O   0  0  0  0  0  0  0  0  0  0  0  0
    5.0547    4.3897    0.0000 O   0  0  0  0  0  0  0  0  0  0  0  0
    2.2522    2.3536    0.0000 O   0  0  0  0  0  0  0  0  0  0  0  0
    3.0657    4.1807    0.0000 O   0  0  0  0  0  0  0  0  0  0  0  0
    5.9168   -0.5942    0.0000 C   0  0  2  0  0  0  0  0  0  0  0  0
    5.4168    0.9446    0.0000 C   0  0  2  0  0  0  0  0  0  0  0  0
    6.7258   -0.0064    0.0000 C   0  0  0  0  0  0  0  0  0  0  0  0
    6.4168    0.9446    0.0000 C   0  0  0  0  0  0  0  0  0  0  0  0
    5.9168   -1.5942    0.0000 C   0  0  0  0  0  0  0  0  0  0  0  0
    4.8290    1.7536    0.0000 C   0  0  0  0  0  0  0  0  0  0  0  0
    6.7828   -2.0942    0.0000 C   0  0  0  0  0  0  0  0  0  0  0  0
    5.0508   -2.0942    0.0000 C   0  0  0  0  0  0  0  0  0  0  0  0
    3.8345    1.6491    0.0000 C   0  0  0  0  0  0  0  0  0  0  0  0
    5.2357    2.6672    0.0000 C   0  0  0  0  0  0  0  0  0  0  0  0
    5.0508   -3.0942    0.0000 C   0  0  0  0  0  0  0  0  0  0  0  0
    6.7828   -3.0942    0.0000 C   0  0  0  0  0  0  0  0  0  0  0  0
    4.6480    3.4762    0.0000 C   0  0  0  0  0  0  0  0  0  0  0  0
    3.2467    2.4581    0.0000 C   0  0  0  0  0  0  0  0  0  0  0  0
    5.9168   -3.5942    0.0000 C   0  0  0  0  0  0  0  0  0  0  0  0
    3.6534    3.3717    0.0000 C   0  0  0  0  0  0  0  0  0  0  0  0
    3.3187   -3.0942    0.0000 C   0  0  0  0  0  0  0  0  0  0  0  0
    8.5149   -3.0942    0.0000 C   0  0  0  0  0  0  0  0  0  0  0  0
    6.7828   -5.0942    0.0000 C   0  0  0  0  0  0  0  0  0  0  0  0
    3.4724    5.0942    0.0000 C   0  0  0  0  0  0  0  0  0  0  0  0
    5.3644   -0.8757    0.0000 H   0  0  0  0  0  0  0  0  0  0  0  0
    4.8044    0.8476    0.0000 H   0  0  0  0  0  0  0  0  0  0  0  0
    7.0358   -0.5434    0.0000 H   0  0  0  0  0  0  0  0  0  0  0  0
    7.2922    0.2457    0.0000 H   0  0  0  0  0  0  0  0  0  0  0  0
    7.0232    1.0735    0.0000 H   0  0  0  0  0  0  0  0  0  0  0  0
    6.3520    1.5612    0.0000 H   0  0  0  0  0  0  0  0  0  0  0  0
    7.3198   -1.7842    0.0000 H   0  0  0  0  0  0  0  0  0  0  0  0
    4.5138   -1.7842    0.0000 H   0  0  0  0  0  0  0  0  0  0  0  0
    3.5823    1.0827    0.0000 H   0  0  0  0  0  0  0  0  0  0  0  0
    5.8524    2.7320    0.0000 H   0  0  0  0  0  0  0  0  0  0  0  0
    5.6713    4.4546    0.0000 H   0  0  0  0  0  0  0  0  0  0  0  0
    2.0000    1.7872    0.0000 H   0  0  0  0  0  0  0  0  0  0  0  0
    3.6287   -2.5573    0.0000 H   0  0  0  0  0  0  0  0  0  0  0  0
    2.7818   -2.7842    0.0000 H   0  0  0  0  0  0  0  0  0  0  0  0
    3.0087   -3.6312    0.0000 H   0  0  0  0  0  0  0  0  0  0  0  0
    8.8249   -3.6312    0.0000 H   0  0  0  0  0  0  0  0  0  0  0  0
    9.0518   -2.7842    0.0000 H   0  0  0  0  0  0  0  0  0  0  0  0
    8.2049   -2.5573    0.0000 H   0  0  0  0  0  0  0  0  0  0  0  0
    6.4728   -5.6312    0.0000 H   0  0  0  0  0  0  0  0  0  0  0  0
    7.3198   -5.4042    0.0000 H   0  0  0  0  0  0  0  0  0  0  0  0
    7.0928   -4.5573    0.0000 H   0  0  0  0  0  0  0  0  0  0  0  0
    4.0388    4.8421    0.0000 H   0  0  0  0  0  0  0  0  0  0  0  0
    3.7246    5.6606    0.0000 H   0  0  0  0  0  0  0  0  0  0  0  0
    2.9060    5.3464    0.0000 H   0  0  0  0  0  0  0  0  0  0  0  0
  1  8  1  0  0  0  0
  1  9  1  0  0  0  0
  2 18  1  0  0  0  0
  2 24  1  0  0  0  0
  3 19  1  0  0  0  0
  3 25  1  0  0  0  0
  4 22  1  0  0  0  0
  4 26  1  0  0  0  0
  5 20  1  0  0  0  0
  5 38  1  0  0  0  0
  6 21  1  0  0  0  0
  6 39  1  0  0  0  0
  7 23  1  0  0  0  0
  7 27  1  0  0  0  0
  8 10  1  0  0  0  0
  8 12  1  6  0  0  0
  8 28  1  0  0  0  0
  9 11  1  0  0  0  0
  9 13  1  1  0  0  0
  9 29  1  0  0  0  0
 10 11  1  0  0  0  0
 10 30  1  0  0  0  0
 10 31  1  0  0  0  0
 11 32  1  0  0  0  0
 11 33  1  0  0  0  0
 12 14  2  0  0  0  0
 12 15  1  0  0  0  0
 13 16  2  0  0  0  0
 13 17  1  0  0  0  0
 14 19  1  0  0  0  0
 14 34  1  0  0  0  0
 15 18  2  0  0  0  0
 15 35  1  0  0  0  0
 16 21  1  0  0  0  0
 16 36  1  0  0  0  0
 17 20  2  0  0  0  0
 17 37  1  0  0  0  0
 18 22  1  0  0  0  0
 19 22  2  0  0  0  0
 20 23  1  0  0  0  0
 21 23  2  0  0  0  0
 24 40  1  0  0  0  0
 24 41  1  0  0  0  0
 24 42  1  0  0  0  0
 25 43  1  0  0  0  0
 25 44  1  0  0  0  0
 25 45  1  0  0  0  0
 26 46  1  0  0  0  0
 26 47  1  0  0  0  0
 26 48  1  0  0  0  0
 27 49  1  0  0  0  0
 27 50  1  0  0  0  0
 27 51  1  0  0  0  0
M  END
> <PUBCHEM_COMPOUND_CID>
10833345

> <PUBCHEM_COMPOUND_CANONICALIZED>
1

> <PUBCHEM_CACTVS_COMPLEXITY>
436

> <PUBCHEM_CACTVS_HBOND_ACCEPTOR>
7

> <PUBCHEM_CACTVS_HBOND_DONOR>
2

> <PUBCHEM_CACTVS_ROTATABLE_BOND>
6

> <PUBCHEM_CACTVS_SUBSKEYS>
AAADceB4OAAAAAAAAAAAAAAAAAAAASAAAAAwYAAAAAAAAAABQAAAGgAACAAADBSgmAIyBoAABgCAAiBCAAACCAAgIAAAiAAGiIgNJyKGMRqCcCMlwBULuAfA4PwOIAABCAAAQABAAAIQAACAAAAAAAAAAA==

> <PUBCHEM_IUPAC_OPENEYE_NAME>
2-methoxy-5-[(2R,5R)-5-(3,4,5-trimethoxyphenyl)tetrahydrofuran-2-yl]benzene-1,3-diol

> <PUBCHEM_IUPAC_CAS_NAME>
2-methoxy-5-[(2R,5R)-5-(3,4,5-trimethoxyphenyl)-2-oxolanyl]benzene-1,3-diol

> <PUBCHEM_IUPAC_NAME_MARKUP>
2-methoxy-5-[(2<I>R</I>,5<I>R</I>)-5-(3,4,5-trimethoxyphenyl)oxolan-2-yl]benzene-1,3-diol

> <PUBCHEM_IUPAC_NAME>
2-methoxy-5-[(2R,5R)-5-(3,4,5-trimethoxyphenyl)oxolan-2-yl]benzene-1,3-diol

> <PUBCHEM_IUPAC_SYSTEMATIC_NAME>
2-methoxy-5-[(2R,5R)-5-(3,4,5-trimethoxyphenyl)oxolan-2-yl]benzene-1,3-diol

> <PUBCHEM_IUPAC_TRADITIONAL_NAME>
2-methoxy-5-[(2R,5R)-5-(3,4,5-trimethoxyphenyl)tetrahydrofuran-2-yl]resorcinol

> <PUBCHEM_IUPAC_INCHI>
InChI=1S/C20H24O7/c1-23-17-9-12(10-18(24-2)20(17)26-4)16-6-5-15(27-16)11-7-13(21)19(25-3)14(22)8-11/h7-10,15-16,21-22H,5-6H2,1-4H3/t15-,16-/m1/s1

> <PUBCHEM_IUPAC_INCHIKEY>
GSQCNZKPZFGIRD-HZPDHXFCSA-N

> <PUBCHEM_XLOGP3_AA>
2.8

> <PUBCHEM_EXACT_MASS>
376.15220310

> <PUBCHEM_MOLECULAR_FORMULA>
C20H24O7

> <PUBCHEM_MOLECULAR_WEIGHT>
376.4

> <PUBCHEM_OPENEYE_CAN_SMILES>
COC1=CC(=CC(=C1OC)OC)C2CCC(O2)C3=CC(=C(C(=C3)O)OC)O

> <PUBCHEM_OPENEYE_ISO_SMILES>
COC1=CC(=CC(=C1OC)OC)[C@H]2CC[C@@H](O2)C3=CC(=C(C(=C3)O)OC)O

> <PUBCHEM_CACTVS_TPSA>
86.6

> <PUBCHEM_MONOISOTOPIC_WEIGHT>
376.15220310

> <PUBCHEM_TOTAL_CHARGE>
0

> <PUBCHEM_HEAVY_ATOM_COUNT>
27

> <PUBCHEM_ATOM_DEF_STEREO_COUNT>
2

> <PUBCHEM_ATOM_UDEF_STEREO_COUNT>
0

> <PUBCHEM_BOND_DEF_STEREO_COUNT>
0

> <PUBCHEM_BOND_UDEF_STEREO_COUNT>
0

> <PUBCHEM_ISOTOPIC_ATOM_COUNT>
0

> <PUBCHEM_COMPONENT_COUNT>
1

> <PUBCHEM_CACTVS_TAUTO_COUNT>
-1

> <PUBCHEM_COORDINATE_TYPE>
1
5
255

> <PUBCHEM_BONDANNOTATIONS>
12  14  8
12  15  8
13  16  8
13  17  8
14  19  8
15  18  8
16  21  8
17  20  8
18  22  8
19  22  8
20  23  8
21  23  8
8  12  6
9  13  5

$$$$
