 
  -OEChem-10192103522D

110114  0     0  0  0  0  0  0999 V2000
    2.5369   -0.2370    0.0000 O   0  0  0  0  0  0  0  0  0  0  0  0
    6.5011   -3.1030    0.0000 O   0  0  0  0  0  0  0  0  0  0  0  0
    5.5991    4.7271    0.0000 O   0  0  0  0  0  0  0  0  0  0  0  0
    9.5650    1.0042    0.0000 O   0  0  0  0  0  0  0  0  0  0  0  0
    6.1350    1.2630    0.0000 C   0  0  0  0  0  0  0  0  0  0  0  0
    6.0010   -4.2640    0.0000 C   0  0  0  0  0  0  0  0  0  0  0  0
    7.0991    2.1290    0.0000 C   0  0  0  0  0  0  0  0  0  0  0  0
    5.4838    1.5801    0.0000 C   0  0  0  0  0  0  0  0  0  0  0  0
    5.1350    1.2630    0.0000 C   0  0  0  0  0  0  0  0  0  0  0  0
    6.0010   -3.2640    0.0000 C   0  0  0  0  0  0  0  0  0  0  0  0
    6.5991    2.9951    0.0000 C   0  0  0  0  0  0  0  0  0  0  0  0
    6.4497    1.8390    0.0000 C   0  0  0  0  0  0  0  0  0  0  0  0
    4.2690   -0.2370    0.0000 C   0  0  0  0  0  0  0  0  0  0  0  0
    5.1350   -1.7370    0.0000 C   0  0  0  0  0  0  0  0  0  0  0  0
    8.0991    3.8611    0.0000 C   0  0  0  0  0  0  0  0  0  0  0  0
    8.0991    2.1290    0.0000 C   0  0  0  0  0  0  0  0  0  0  0  0
    3.4030    1.2630    0.0000 C   0  0  0  0  0  0  0  0  0  0  0  0
    5.0991    2.1290    0.0000 C   0  0  0  0  0  0  0  0  0  0  0  0
    6.8671   -1.7370    0.0000 C   0  0  0  0  0  0  0  0  0  0  0  0
    7.7331    0.7630    0.0000 C   0  0  0  0  0  0  0  0  0  0  0  0
    5.1350   -0.7370    0.0000 C   0  0  0  0  0  0  0  0  0  0  0  0
    8.5991    2.9951    0.0000 C   0  0  0  0  0  0  0  0  0  0  0  0
    3.4030    2.2630    0.0000 C   0  0  0  0  0  0  0  0  0  0  0  0
    4.2331    2.6290    0.0000 C   0  0  0  0  0  0  0  0  0  0  0  0
    6.8671   -0.7370    0.0000 C   0  0  0  0  0  0  0  0  0  0  0  0
    7.7331   -0.2370    0.0000 C   0  0  0  0  0  0  0  0  0  0  0  0
    5.1350    0.2630    0.0000 C   0  0  0  0  0  0  0  0  0  0  0  0
    5.1233   -2.7527    0.0000 C   0  0  0  0  0  0  0  0  0  0  0  0
    7.0991    3.8611    0.0000 C   0  0  0  0  0  0  0  0  0  0  0  0
    7.1820    2.5097    0.0000 C   0  0  0  0  0  0  0  0  0  0  0  0
    4.2690    1.7630    0.0000 C   0  0  0  0  0  0  0  0  0  0  0  0
    5.5991    2.9951    0.0000 C   0  0  0  0  0  0  0  0  0  0  0  0
    6.8788   -2.7527    0.0000 C   0  0  0  0  0  0  0  0  0  0  0  0
    6.7485    0.8920    0.0000 C   0  0  0  0  0  0  0  0  0  0  0  0
    3.4030    0.2630    0.0000 C   0  0  0  0  0  0  0  0  0  0  0  0
    6.0010   -2.2370    0.0000 C   0  0  0  0  0  0  0  0  0  0  0  0
    6.0991    3.8611    0.0000 C   0  0  0  0  0  0  0  0  0  0  0  0
    8.5991    1.2630    0.0000 C   0  0  0  0  0  0  0  0  0  0  0  0
    5.9614    2.2478    0.0000 C   0  0  0  0  0  0  0  0  0  0  0  0
    6.3088    0.2782    0.0000 C   0  0  0  0  0  0  0  0  0  0  0  0
    7.1198    1.4367    0.0000 C   0  0  0  0  0  0  0  0  0  0  0  0
    6.0010   -5.2640    0.0000 C   0  0  0  0  0  0  0  0  0  0  0  0
    7.0010   -4.2640    0.0000 C   0  0  0  0  0  0  0  0  0  0  0  0
    5.0010   -4.2640    0.0000 C   0  0  0  0  0  0  0  0  0  0  0  0
    7.8652    1.4862    0.0000 C   0  0  0  0  0  0  0  0  0  0  0  0
    7.7419    2.8951    0.0000 C   0  0  0  0  0  0  0  0  0  0  0  0
    6.4491    1.0032    0.0000 C   0  0  0  0  0  0  0  0  0  0  0  0
    4.5774    1.1576    0.0000 C   0  0  0  0  0  0  0  0  0  0  0  0
    5.1861    2.6910    0.0000 C   0  0  0  0  0  0  0  0  0  0  0  0
    5.7425    0.6142    0.0000 C   0  0  0  0  0  0  0  0  0  0  0  0
    5.7456   -0.8446    0.0000 H   0  0  0  0  0  0  0  0  0  0  0  0
    5.3471   -0.1544    0.0000 H   0  0  0  0  0  0  0  0  0  0  0  0
    9.0741    2.5965    0.0000 H   0  0  0  0  0  0  0  0  0  0  0  0
    9.0741    3.3936    0.0000 H   0  0  0  0  0  0  0  0  0  0  0  0
    3.2335    2.8594    0.0000 H   0  0  0  0  0  0  0  0  0  0  0  0
    2.7889    2.1775    0.0000 H   0  0  0  0  0  0  0  0  0  0  0  0
    4.6485    3.0893    0.0000 H   0  0  0  0  0  0  0  0  0  0  0  0
    3.8699    3.1315    0.0000 H   0  0  0  0  0  0  0  0  0  0  0  0
    6.6550   -0.1544    0.0000 H   0  0  0  0  0  0  0  0  0  0  0  0
    6.2565   -0.8446    0.0000 H   0  0  0  0  0  0  0  0  0  0  0  0
    7.9451   -0.8196    0.0000 H   0  0  0  0  0  0  0  0  0  0  0  0
    8.3437   -0.1293    0.0000 H   0  0  0  0  0  0  0  0  0  0  0  0
    5.6720   -0.0470    0.0000 H   0  0  0  0  0  0  0  0  0  0  0  0
    4.5840   -3.0586    0.0000 H   0  0  0  0  0  0  0  0  0  0  0  0
    6.7891    4.3980    0.0000 H   0  0  0  0  0  0  0  0  0  0  0  0
    7.0746    3.1203    0.0000 H   0  0  0  0  0  0  0  0  0  0  0  0
    4.2690    2.3830    0.0000 H   0  0  0  0  0  0  0  0  0  0  0  0
    5.2891    3.5320    0.0000 H   0  0  0  0  0  0  0  0  0  0  0  0
    7.4181   -3.0586    0.0000 H   0  0  0  0  0  0  0  0  0  0  0  0
    6.3502    0.4168    0.0000 H   0  0  0  0  0  0  0  0  0  0  0  0
    6.5719    2.3555    0.0000 H   0  0  0  0  0  0  0  0  0  0  0  0
    5.8537    2.8584    0.0000 H   0  0  0  0  0  0  0  0  0  0  0  0
    5.3508    2.1402    0.0000 H   0  0  0  0  0  0  0  0  0  0  0  0
    5.6982    0.1705    0.0000 H   0  0  0  0  0  0  0  0  0  0  0  0
    6.4165   -0.3323    0.0000 H   0  0  0  0  0  0  0  0  0  0  0  0
    6.9193    0.3859    0.0000 H   0  0  0  0  0  0  0  0  0  0  0  0
    7.2275    0.8261    0.0000 H   0  0  0  0  0  0  0  0  0  0  0  0
    7.7304    1.5443    0.0000 H   0  0  0  0  0  0  0  0  0  0  0  0
    7.0122    2.0472    0.0000 H   0  0  0  0  0  0  0  0  0  0  0  0
    5.3810   -5.2640    0.0000 H   0  0  0  0  0  0  0  0  0  0  0  0
    6.0010   -5.8840    0.0000 H   0  0  0  0  0  0  0  0  0  0  0  0
    6.6210   -5.2640    0.0000 H   0  0  0  0  0  0  0  0  0  0  0  0
    7.0010   -4.8840    0.0000 H   0  0  0  0  0  0  0  0  0  0  0  0
    7.6210   -4.2640    0.0000 H   0  0  0  0  0  0  0  0  0  0  0  0
    7.0010   -3.6440    0.0000 H   0  0  0  0  0  0  0  0  0  0  0  0
    5.0010   -3.6440    0.0000 H   0  0  0  0  0  0  0  0  0  0  0  0
    4.3810   -4.2640    0.0000 H   0  0  0  0  0  0  0  0  0  0  0  0
    5.0010   -4.8840    0.0000 H   0  0  0  0  0  0  0  0  0  0  0  0
    7.4666    1.0113    0.0000 H   0  0  0  0  0  0  0  0  0  0  0  0
    8.3401    1.0877    0.0000 H   0  0  0  0  0  0  0  0  0  0  0  0
    8.2637    1.9612    0.0000 H   0  0  0  0  0  0  0  0  0  0  0  0
    8.2169    2.4966    0.0000 H   0  0  0  0  0  0  0  0  0  0  0  0
    8.1404    3.3700    0.0000 H   0  0  0  0  0  0  0  0  0  0  0  0
    7.2670    3.2936    0.0000 H   0  0  0  0  0  0  0  0  0  0  0  0
    5.9121    1.3132    0.0000 H   0  0  0  0  0  0  0  0  0  0  0  0
    6.1390    0.4663    0.0000 H   0  0  0  0  0  0  0  0  0  0  0  0
    6.9860    0.6932    0.0000 H   0  0  0  0  0  0  0  0  0  0  0  0
    4.3154    1.7195    0.0000 H   0  0  0  0  0  0  0  0  0  0  0  0
    4.0155    0.8956    0.0000 H   0  0  0  0  0  0  0  0  0  0  0  0
    4.8394    0.5957    0.0000 H   0  0  0  0  0  0  0  0  0  0  0  0
    5.7850    2.8514    0.0000 H   0  0  0  0  0  0  0  0  0  0  0  0
    5.0256    3.2898    0.0000 H   0  0  0  0  0  0  0  0  0  0  0  0
    4.5872    2.5305    0.0000 H   0  0  0  0  0  0  0  0  0  0  0  0
    5.1437    0.4538    0.0000 H   0  0  0  0  0  0  0  0  0  0  0  0
    5.9030    0.0153    0.0000 H   0  0  0  0  0  0  0  0  0  0  0  0
    6.3414    0.7747    0.0000 H   0  0  0  0  0  0  0  0  0  0  0  0
    2.0000    0.0730    0.0000 H   0  0  0  0  0  0  0  0  0  0  0  0
    7.0380   -3.4130    0.0000 H   0  0  0  0  0  0  0  0  0  0  0  0
    5.9091    5.2640    0.0000 H   0  0  0  0  0  0  0  0  0  0  0  0
    9.7255    0.4053    0.0000 H   0  0  0  0  0  0  0  0  0  0  0  0
  1 35  1  0  0  0  0
  1107  1  0  0  0  0
  2 36  1  0  0  0  0
  2108  1  0  0  0  0
  3 37  1  0  0  0  0
  3109  1  0  0  0  0
  4 38  1  0  0  0  0
  4110  1  0  0  0  0
  5  9  1  0  0  0  0
  5 39  1  0  0  0  0
  5 40  1  0  0  0  0
  5 41  1  0  0  0  0
  6 10  1  0  0  0  0
  6 42  1  0  0  0  0
  6 43  1  0  0  0  0
  6 44  1  0  0  0  0
  7 11  1  0  0  0  0
  7 45  1  0  0  0  0
  7 46  1  0  0  0  0
  7 47  1  0  0  0  0
  8 12  1  0  0  0  0
  8 48  1  0  0  0  0
  8 49  1  0  0  0  0
  8 50  1  0  0  0  0
  9 27  1  0  0  0  0
  9 31  2  0  0  0  0
 10 28  1  0  0  0  0
 10 33  2  0  0  0  0
 11 29  1  0  0  0  0
 11 32  2  0  0  0  0
 12 30  1  0  0  0  0
 12 34  2  0  0  0  0
 13 21  1  0  0  0  0
 13 27  2  0  0  0  0
 13 35  1  0  0  0  0
 14 21  1  0  0  0  0
 14 28  2  0  0  0  0
 14 36  1  0  0  0  0
 15 22  1  0  0  0  0
 15 29  2  0  0  0  0
 15 37  1  0  0  0  0
 16 22  1  0  0  0  0
 16 30  2  0  0  0  0
 16 38  1  0  0  0  0
 17 23  1  0  0  0  0
 17 31  1  0  0  0  0
 17 35  2  0  0  0  0
 18 24  1  0  0  0  0
 18 32  1  0  0  0  0
 18 37  2  0  0  0  0
 19 25  1  0  0  0  0
 19 33  1  0  0  0  0
 19 36  2  0  0  0  0
 20 26  1  0  0  0  0
 20 34  1  0  0  0  0
 20 38  2  0  0  0  0
 21 51  1  0  0  0  0
 21 52  1  0  0  0  0
 22 53  1  0  0  0  0
 22 54  1  0  0  0  0
 23 24  1  0  0  0  0
 23 55  1  0  0  0  0
 23 56  1  0  0  0  0
 24 57  1  0  0  0  0
 24 58  1  0  0  0  0
 25 26  1  0  0  0  0
 25 59  1  0  0  0  0
 25 60  1  0  0  0  0
 26 61  1  0  0  0  0
 26 62  1  0  0  0  0
 27 63  1  0  0  0  0
 28 64  1  0  0  0  0
 29 65  1  0  0  0  0
 30 66  1  0  0  0  0
 31 67  1  0  0  0  0
 32 68  1  0  0  0  0
 33 69  1  0  0  0  0
 34 70  1  0  0  0  0
 39 71  1  0  0  0  0
 39 72  1  0  0  0  0
 39 73  1  0  0  0  0
 40 74  1  0  0  0  0
 40 75  1  0  0  0  0
 40 76  1  0  0  0  0
 41 77  1  0  0  0  0
 41 78  1  0  0  0  0
 41 79  1  0  0  0  0
 42 80  1  0  0  0  0
 42 81  1  0  0  0  0
 42 82  1  0  0  0  0
 43 83  1  0  0  0  0
 43 84  1  0  0  0  0
 43 85  1  0  0  0  0
 44 86  1  0  0  0  0
 44 87  1  0  0  0  0
 44 88  1  0  0  0  0
 45 89  1  0  0  0  0
 45 90  1  0  0  0  0
 45 91  1  0  0  0  0
 46 92  1  0  0  0  0
 46 93  1  0  0  0  0
 46 94  1  0  0  0  0
 47 95  1  0  0  0  0
 47 96  1  0  0  0  0
 47 97  1  0  0  0  0
 48 98  1  0  0  0  0
 48 99  1  0  0  0  0
 48100  1  0  0  0  0
 49101  1  0  0  0  0
 49102  1  0  0  0  0
 49103  1  0  0  0  0
 50104  1  0  0  0  0
 50105  1  0  0  0  0
 50106  1  0  0  0  0
M  END
> <PUBCHEM_COMPOUND_CID>
101924902

> <PUBCHEM_COMPOUND_CANONICALIZED>
1

> <PUBCHEM_CACTVS_COMPLEXITY>
917

> <PUBCHEM_CACTVS_HBOND_ACCEPTOR>
4

> <PUBCHEM_CACTVS_HBOND_DONOR>
4

> <PUBCHEM_CACTVS_ROTATABLE_BOND>
4

> <PUBCHEM_CACTVS_SUBSKEYS>
AAADcfB8OAAAAAAAAAAAAAAAAAAAAAAAAAAwYMGAAAAAAAABVAAAGgAACAAADgSAmAAyBoAAAgCAAiBCAAACAAAgIAAAiAAECIgIJiKCERKAcAAkwBEImAeA4PQPoAACAAAIAABAAAQAABAAAAAAAAAAAA==

> <PUBCHEM_IUPAC_OPENEYE_NAME>
5,12,18,25-tetratert-butylpentacyclo[21.3.1.13,7.110,14.116,20]triaconta-1(26),3,5,7(30),10(29),11,13,16,18,20(28),23(27),24-dodecaene-27,28,29,30-tetrol

> <PUBCHEM_IUPAC_CAS_NAME>
5,12,18,25-tetratert-butylpentacyclo[21.3.1.13,7.110,14.116,20]triaconta-1(26),3,5,7(30),10(29),11,13,16,18,20(28),23(27),24-dodecaene-27,28,29,30-tetrol

> <PUBCHEM_IUPAC_NAME_MARKUP>
5,12,18,25-tetra<I>tert</I>-butylpentacyclo[21.3.1.1<SUP>3,7</SUP>.1<SUP>10,14</SUP>.1<SUP>16,20</SUP>]triaconta-1(26),3,5,7(30),10(29),11,13,16,18,20(28),23(27),24-dodecaene-27,28,29,30-tetrol

> <PUBCHEM_IUPAC_NAME>
5,12,18,25-tetratert-butylpentacyclo[21.3.1.13,7.110,14.116,20]triaconta-1(26),3,5,7(30),10(29),11,13,16,18,20(28),23(27),24-dodecaene-27,28,29,30-tetrol

> <PUBCHEM_IUPAC_SYSTEMATIC_NAME>
5,12,18,25-tetratert-butylpentacyclo[21.3.1.13,7.110,14.116,20]triaconta-1(26),3,5,7(30),10(29),11,13,16,18,20(28),23(27),24-dodecaene-27,28,29,30-tetrol

> <PUBCHEM_IUPAC_TRADITIONAL_NAME>
5,12,18,25-tetratert-butylpentacyclo[21.3.1.13,7.110,14.116,20]triaconta-1(26),3,5,7(30),10(29),11,13,16,18,20(28),23(27),24-dodecaene-27,28,29,30-tetrol

> <PUBCHEM_IUPAC_INCHI>
InChI=1S/C46H60O4/c1-43(2,3)35-19-27-13-14-28-20-37(45(7,8)9)25-33(41(28)49)18-34-26-38(46(10,11)12)22-30(42(34)50)16-15-29-21-36(44(4,5)6)24-32(40(29)48)17-31(23-35)39(27)47/h19-26,47-50H,13-18H2,1-12H3

> <PUBCHEM_IUPAC_INCHIKEY>
PYUNYBNLIIFUFL-UHFFFAOYSA-N

> <PUBCHEM_XLOGP3_AA>
13.5

> <PUBCHEM_EXACT_MASS>
676.44916039

> <PUBCHEM_MOLECULAR_FORMULA>
C46H60O4

> <PUBCHEM_MOLECULAR_WEIGHT>
677.0

> <PUBCHEM_OPENEYE_CAN_SMILES>
CC(C)(C)C1=CC2=C(C(=C1)CC3=CC(=CC(=C3O)CCC4=C(C(=CC(=C4)C(C)(C)C)CC5=CC(=CC(=C5O)CC2)C(C)(C)C)O)C(C)(C)C)O

> <PUBCHEM_OPENEYE_ISO_SMILES>
CC(C)(C)C1=CC2=C(C(=C1)CC3=CC(=CC(=C3O)CCC4=C(C(=CC(=C4)C(C)(C)C)CC5=CC(=CC(=C5O)CC2)C(C)(C)C)O)C(C)(C)C)O

> <PUBCHEM_CACTVS_TPSA>
80.9

> <PUBCHEM_MONOISOTOPIC_WEIGHT>
676.44916039

> <PUBCHEM_TOTAL_CHARGE>
0

> <PUBCHEM_HEAVY_ATOM_COUNT>
50

> <PUBCHEM_ATOM_DEF_STEREO_COUNT>
0

> <PUBCHEM_ATOM_UDEF_STEREO_COUNT>
0

> <PUBCHEM_BOND_DEF_STEREO_COUNT>
0

> <PUBCHEM_BOND_UDEF_STEREO_COUNT>
0

> <PUBCHEM_ISOTOPIC_ATOM_COUNT>
0

> <PUBCHEM_COMPONENT_COUNT>
1

> <PUBCHEM_CACTVS_TAUTO_COUNT>
-1

> <PUBCHEM_COORDINATE_TYPE>
1
5
255

> <PUBCHEM_BONDANNOTATIONS>
10  28  8
10  33  8
11  29  8
11  32  8
12  30  8
12  34  8
13  27  8
13  35  8
14  28  8
14  36  8
15  29  8
15  37  8
16  30  8
16  38  8
17  31  8
17  35  8
18  32  8
18  37  8
19  33  8
19  36  8
20  34  8
20  38  8
9  27  8
9  31  8

$$$$
