 
  -OEChem-10192104082D

 42 44  0     1  0  0  0  0  0999 V2000
    4.7690    1.9130    0.0000 O   0  0  0  0  0  0  0  0  0  0  0  0
    2.5089    0.6529    0.0000 O   0  0  0  0  0  0  0  0  0  0  0  0
    6.2370   -0.3252    0.0000 O   0  0  0  0  0  0  0  0  0  0  0  0
    2.5369   -2.6259    0.0000 O   0  0  0  0  0  0  0  0  0  0  0  0
    4.2690   -3.6259    0.0000 O   0  0  0  0  0  0  0  0  0  0  0  0
    9.4175    1.3731    0.0000 O   0  0  0  0  0  0  0  0  0  0  0  0
    9.0016    3.3294    0.0000 O   0  0  0  0  0  0  0  0  0  0  0  0
    4.2690    0.3741    0.0000 C   0  0  2  0  0  0  0  0  0  0  0  0
    5.0780    0.9619    0.0000 C   0  0  1  0  0  0  0  0  0  0  0  0
    3.4600    0.9619    0.0000 C   0  0  1  0  0  0  0  0  0  0  0  0
    3.7690    1.9130    0.0000 C   0  0  0  0  0  0  0  0  0  0  0  0
    6.0291    0.6529    0.0000 C   0  0  2  0  0  0  0  0  0  0  0  0
    4.2690   -0.6259    0.0000 C   0  0  0  0  0  0  0  0  0  0  0  0
    6.7722    1.3220    0.0000 C   0  0  0  0  0  0  0  0  0  0  0  0
    3.4030   -1.1259    0.0000 C   0  0  0  0  0  0  0  0  0  0  0  0
    5.1350   -1.1259    0.0000 C   0  0  0  0  0  0  0  0  0  0  0  0
    7.7233    1.0130    0.0000 C   0  0  0  0  0  0  0  0  0  0  0  0
    6.5643    2.3002    0.0000 C   0  0  0  0  0  0  0  0  0  0  0  0
    3.4030   -2.1259    0.0000 C   0  0  0  0  0  0  0  0  0  0  0  0
    5.1350   -2.1259    0.0000 C   0  0  0  0  0  0  0  0  0  0  0  0
    4.2690   -2.6259    0.0000 C   0  0  0  0  0  0  0  0  0  0  0  0
    8.4664    1.6821    0.0000 C   0  0  0  0  0  0  0  0  0  0  0  0
    7.3074    2.9693    0.0000 C   0  0  0  0  0  0  0  0  0  0  0  0
    8.2585    2.6603    0.0000 C   0  0  0  0  0  0  0  0  0  0  0  0
    4.8214    0.0927    0.0000 H   0  0  0  0  0  0  0  0  0  0  0  0
    5.6790    1.5630    0.0000 H   0  0  0  0  0  0  0  0  0  0  0  0
    3.3630    0.3495    0.0000 H   0  0  0  0  0  0  0  0  0  0  0  0
    3.8338    2.5296    0.0000 H   0  0  0  0  0  0  0  0  0  0  0  0
    3.1625    2.0419    0.0000 H   0  0  0  0  0  0  0  0  0  0  0  0
    5.5683    0.2380    0.0000 H   0  0  0  0  0  0  0  0  0  0  0  0
    2.0482    1.0678    0.0000 H   0  0  0  0  0  0  0  0  0  0  0  0
    2.8660   -0.8159    0.0000 H   0  0  0  0  0  0  0  0  0  0  0  0
    5.6720   -0.8159    0.0000 H   0  0  0  0  0  0  0  0  0  0  0  0
    6.8266   -0.5168    0.0000 H   0  0  0  0  0  0  0  0  0  0  0  0
    7.8522    0.4066    0.0000 H   0  0  0  0  0  0  0  0  0  0  0  0
    5.9746    2.4918    0.0000 H   0  0  0  0  0  0  0  0  0  0  0  0
    5.6720   -2.4359    0.0000 H   0  0  0  0  0  0  0  0  0  0  0  0
    7.1785    3.5758    0.0000 H   0  0  0  0  0  0  0  0  0  0  0  0
    2.0000   -2.3159    0.0000 H   0  0  0  0  0  0  0  0  0  0  0  0
    4.8059   -3.9359    0.0000 H   0  0  0  0  0  0  0  0  0  0  0  0
    9.8782    1.7880    0.0000 H   0  0  0  0  0  0  0  0  0  0  0  0
    8.8727    3.9359    0.0000 H   0  0  0  0  0  0  0  0  0  0  0  0
  1  9  1  0  0  0  0
  1 11  1  0  0  0  0
 10  2  1  6  0  0  0
  2 31  1  0  0  0  0
 12  3  1  6  0  0  0
  3 34  1  0  0  0  0
  4 19  1  0  0  0  0
  4 39  1  0  0  0  0
  5 21  1  0  0  0  0
  5 40  1  0  0  0  0
  6 22  1  0  0  0  0
  6 41  1  0  0  0  0
  7 24  1  0  0  0  0
  7 42  1  0  0  0  0
  8  9  1  0  0  0  0
  8 10  1  0  0  0  0
  8 13  1  1  0  0  0
  8 25  1  0  0  0  0
  9 12  1  0  0  0  0
  9 26  1  1  0  0  0
 10 11  1  0  0  0  0
 10 27  1  0  0  0  0
 11 28  1  0  0  0  0
 11 29  1  0  0  0  0
 12 14  1  0  0  0  0
 12 30  1  0  0  0  0
 13 15  2  0  0  0  0
 13 16  1  0  0  0  0
 14 17  2  0  0  0  0
 14 18  1  0  0  0  0
 15 19  1  0  0  0  0
 15 32  1  0  0  0  0
 16 20  2  0  0  0  0
 16 33  1  0  0  0  0
 17 22  1  0  0  0  0
 17 35  1  0  0  0  0
 18 23  2  0  0  0  0
 18 36  1  0  0  0  0
 19 21  2  0  0  0  0
 20 21  1  0  0  0  0
 20 37  1  0  0  0  0
 22 24  2  0  0  0  0
 23 24  1  0  0  0  0
 23 38  1  0  0  0  0
M  END
> <PUBCHEM_COMPOUND_CID>
101316779

> <PUBCHEM_COMPOUND_CANONICALIZED>
1

> <PUBCHEM_CACTVS_COMPLEXITY>
420

> <PUBCHEM_CACTVS_HBOND_ACCEPTOR>
7

> <PUBCHEM_CACTVS_HBOND_DONOR>
6

> <PUBCHEM_CACTVS_ROTATABLE_BOND>
3

> <PUBCHEM_CACTVS_SUBSKEYS>
AAADceB4OAAAAAAAAAAAAAAAAAAAASAAAAAwYAAAAAAAAAABQAAAGgAACAAADRSgmAIwBoAABgCAAiBCAAACAAAgIAAIiAAGiIgJNiKCERKCcAElwBELmAfA4PwOoAABAAAAQABAAAIAAACAAAAAAAAAAA==

> <PUBCHEM_IUPAC_OPENEYE_NAME>
4-[(2S,3S,4S)-2-[(S)-(3,4-dihydroxyphenyl)-hydroxy-methyl]-4-hydroxy-tetrahydrofuran-3-yl]benzene-1,2-diol

> <PUBCHEM_IUPAC_CAS_NAME>
4-[(2S,3S,4S)-2-[(S)-(3,4-dihydroxyphenyl)-hydroxymethyl]-4-hydroxy-3-oxolanyl]benzene-1,2-diol

> <PUBCHEM_IUPAC_NAME_MARKUP>
4-[(2<I>S</I>,3<I>S</I>,4<I>S</I>)-2-[(<I>S</I>)-(3,4-dihydroxyphenyl)-hydroxymethyl]-4-hydroxyoxolan-3-yl]benzene-1,2-diol

> <PUBCHEM_IUPAC_NAME>
4-[(2S,3S,4S)-2-[(S)-(3,4-dihydroxyphenyl)-hydroxymethyl]-4-hydroxyoxolan-3-yl]benzene-1,2-diol

> <PUBCHEM_IUPAC_SYSTEMATIC_NAME>
4-[(2S,3S,4S)-2-[(S)-[3,4-bis(oxidanyl)phenyl]-oxidanyl-methyl]-4-oxidanyl-oxolan-3-yl]benzene-1,2-diol

> <PUBCHEM_IUPAC_TRADITIONAL_NAME>
4-[(2S,3S,4S)-2-[(S)-(3,4-dihydroxyphenyl)-hydroxy-methyl]-4-hydroxy-tetrahydrofuran-3-yl]pyrocatechol

> <PUBCHEM_IUPAC_INCHI>
InChI=1S/C17H18O7/c18-10-3-1-8(5-12(10)20)15-14(22)7-24-17(15)16(23)9-2-4-11(19)13(21)6-9/h1-6,14-23H,7H2/t14-,15+,16+,17+/m1/s1

> <PUBCHEM_IUPAC_INCHIKEY>
OVFIRUOQFSGCID-QZWWFDLISA-N

> <PUBCHEM_XLOGP3_AA>
0.5

> <PUBCHEM_EXACT_MASS>
334.10525291

> <PUBCHEM_MOLECULAR_FORMULA>
C17H18O7

> <PUBCHEM_MOLECULAR_WEIGHT>
334.3

> <PUBCHEM_OPENEYE_CAN_SMILES>
C1C(C(C(O1)C(C2=CC(=C(C=C2)O)O)O)C3=CC(=C(C=C3)O)O)O

> <PUBCHEM_OPENEYE_ISO_SMILES>
C1[C@H]([C@@H]([C@H](O1)[C@H](C2=CC(=C(C=C2)O)O)O)C3=CC(=C(C=C3)O)O)O

> <PUBCHEM_CACTVS_TPSA>
131

> <PUBCHEM_MONOISOTOPIC_WEIGHT>
334.10525291

> <PUBCHEM_TOTAL_CHARGE>
0

> <PUBCHEM_HEAVY_ATOM_COUNT>
24

> <PUBCHEM_ATOM_DEF_STEREO_COUNT>
4

> <PUBCHEM_ATOM_UDEF_STEREO_COUNT>
0

> <PUBCHEM_BOND_DEF_STEREO_COUNT>
0

> <PUBCHEM_BOND_UDEF_STEREO_COUNT>
0

> <PUBCHEM_ISOTOPIC_ATOM_COUNT>
0

> <PUBCHEM_COMPONENT_COUNT>
1

> <PUBCHEM_CACTVS_TAUTO_COUNT>
-1

> <PUBCHEM_COORDINATE_TYPE>
1
5
255

> <PUBCHEM_BONDANNOTATIONS>
13  15  8
13  16  8
14  17  8
14  18  8
15  19  8
16  20  8
17  22  8
18  23  8
19  21  8
10  2  6
20  21  8
22  24  8
23  24  8
12  3  6
8  13  5
9  26  5

$$$$
