 
  -OEChem-10192104022D

 61 64  0     1  0  0  0  0  0999 V2000
    6.0010    0.4352    0.0000 O   0  0  0  0  0  0  0  0  0  0  0  0
    7.7331    2.4352    0.0000 O   0  0  0  0  0  0  0  0  0  0  0  0
    7.7331    2.4352    0.0000 O   0  0  0  0  0  0  0  0  0  0  0  0
    6.8671   -1.0648    0.0000 O   0  0  0  0  0  0  0  0  0  0  0  0
    8.5991   -0.0648    0.0000 O   0  0  0  0  0  0  0  0  0  0  0  0
    5.1350   -1.0648    0.0000 O   0  0  0  0  0  0  0  0  0  0  0  0
    9.4652    0.4352    0.0000 O   0  0  0  0  0  0  0  0  0  0  0  0
    5.1350    2.9352    0.0000 O   0  0  0  0  0  0  0  0  0  0  0  0
    4.2690    1.4352    0.0000 O   0  0  0  0  0  0  0  0  0  0  0  0
    6.8671   -3.0648    0.0000 O   0  0  0  0  0  0  0  0  0  0  0  0
    5.1350   -4.0648    0.0000 O   0  0  0  0  0  0  0  0  0  0  0  0
    9.2419    3.7012    0.0000 O   0  0  0  0  0  0  0  0  0  0  0  0
    8.0751    4.3748    0.0000 O   0  0  0  0  0  0  0  0  0  0  0  0
    3.4030   -3.0648    0.0000 O   0  0  0  0  0  0  0  0  0  0  0  0
    2.5369   -1.5648    0.0000 O   0  0  0  0  0  0  0  0  0  0  0  0
    7.7331    1.4352    0.0000 C   0  0  1  0  0  0  0  0  0  0  0  0
    6.8671    1.9352    0.0000 C   0  0  1  0  0  0  0  0  0  0  0  0
    7.7331    0.4352    0.0000 C   0  0  2  0  0  0  0  0  0  0  0  0
    6.0010    1.4352    0.0000 C   0  0  1  0  0  0  0  0  0  0  0  0
    6.8671   -0.0648    0.0000 C   0  0  2  0  0  0  0  0  0  0  0  0
    8.5991    0.9352    0.0000 C   0  0  0  0  0  0  0  0  0  0  0  0
    6.0010    2.4352    0.0000 C   0  0  0  0  0  0  0  0  0  0  0  0
    5.1350    1.9352    0.0000 C   0  0  0  0  0  0  0  0  0  0  0  0
    9.4651    1.4352    0.0000 C   0  0  0  0  0  0  0  0  0  0  0  0
    6.0010    3.4352    0.0000 C   0  0  0  0  0  0  0  0  0  0  0  0
    6.0010   -1.5648    0.0000 C   0  0  1  0  0  0  0  0  0  0  0  0
    9.4651    2.4352    0.0000 C   0  0  0  0  0  0  0  0  0  0  0  0
    6.8671    3.9352    0.0000 C   0  0  0  0  0  0  0  0  0  0  0  0
    6.0010   -2.5648    0.0000 C   0  0  1  0  0  0  0  0  0  0  0  0
    8.5991    2.9352    0.0000 C   0  0  0  0  0  0  0  0  0  0  0  0
    7.7331    3.4352    0.0000 C   0  0  0  0  0  0  0  0  0  0  0  0
    5.1350   -3.0648    0.0000 C   0  0  2  0  0  0  0  0  0  0  0  0
    4.2690   -2.5648    0.0000 C   0  0  1  0  0  0  0  0  0  0  0  0
    4.2690   -1.5648    0.0000 C   0  0  1  0  0  0  0  0  0  0  0  0
    3.4030   -1.0648    0.0000 C   0  0  0  0  0  0  0  0  0  0  0  0
    7.7331   -0.1848    0.0000 H   0  0  0  0  0  0  0  0  0  0  0  0
    5.4641    1.1252    0.0000 H   0  0  0  0  0  0  0  0  0  0  0  0
    7.4040   -0.3748    0.0000 H   0  0  0  0  0  0  0  0  0  0  0  0
    5.5335    2.4101    0.0000 H   0  0  0  0  0  0  0  0  0  0  0  0
    4.7365    2.4101    0.0000 H   0  0  0  0  0  0  0  0  0  0  0  0
    9.6772    0.8525    0.0000 H   0  0  0  0  0  0  0  0  0  0  0  0
   10.0757    1.5428    0.0000 H   0  0  0  0  0  0  0  0  0  0  0  0
    5.7890    4.0178    0.0000 H   0  0  0  0  0  0  0  0  0  0  0  0
    5.3905    3.3275    0.0000 H   0  0  0  0  0  0  0  0  0  0  0  0
    6.0010   -0.9448    0.0000 H   0  0  0  0  0  0  0  0  0  0  0  0
   10.0757    2.3275    0.0000 H   0  0  0  0  0  0  0  0  0  0  0  0
    9.6772    3.0178    0.0000 H   0  0  0  0  0  0  0  0  0  0  0  0
    7.2656    4.4101    0.0000 H   0  0  0  0  0  0  0  0  0  0  0  0
    6.4685    4.4101    0.0000 H   0  0  0  0  0  0  0  0  0  0  0  0
    6.0010   -3.1848    0.0000 H   0  0  0  0  0  0  0  0  0  0  0  0
    8.5991   -0.6848    0.0000 H   0  0  0  0  0  0  0  0  0  0  0  0
    4.5981   -3.3748    0.0000 H   0  0  0  0  0  0  0  0  0  0  0  0
    4.2690   -3.1848    0.0000 H   0  0  0  0  0  0  0  0  0  0  0  0
    4.2690   -0.9448    0.0000 H   0  0  0  0  0  0  0  0  0  0  0  0
    3.7320    1.7452    0.0000 H   0  0  0  0  0  0  0  0  0  0  0  0
    3.8015   -0.5899    0.0000 H   0  0  0  0  0  0  0  0  0  0  0  0
    3.0044   -0.5899    0.0000 H   0  0  0  0  0  0  0  0  0  0  0  0
    6.8671   -3.6848    0.0000 H   0  0  0  0  0  0  0  0  0  0  0  0
    4.5981   -4.3748    0.0000 H   0  0  0  0  0  0  0  0  0  0  0  0
    3.4030   -3.6848    0.0000 H   0  0  0  0  0  0  0  0  0  0  0  0
    2.0000   -1.2548    0.0000 H   0  0  0  0  0  0  0  0  0  0  0  0
  1 19  1  0  0  0  0
  1 20  1  0  0  0  0
 16  2  1  6  0  0  0
  2 30  1  0  0  0  0
 17  3  1  1  0  0  0
  3 31  1  0  0  0  0
 20  4  1  1  0  0  0
 26  4  1  6  0  0  0
 18  5  1  1  0  0  0
  5 51  1  0  0  0  0
  6 26  1  0  0  0  0
  6 34  1  0  0  0  0
  7 21  2  0  0  0  0
  8 22  2  0  0  0  0
  9 23  1  0  0  0  0
  9 55  1  0  0  0  0
 29 10  1  6  0  0  0
 10 58  1  0  0  0  0
 32 11  1  1  0  0  0
 11 59  1  0  0  0  0
 12 30  2  0  0  0  0
 13 31  2  0  0  0  0
 33 14  1  6  0  0  0
 14 60  1  0  0  0  0
 15 35  1  0  0  0  0
 15 61  1  0  0  0  0
 16 17  1  0  0  0  0
 16 18  1  0  0  0  0
 16 21  1  0  0  0  0
 17 19  1  0  0  0  0
 17 22  1  0  0  0  0
 18 20  1  0  0  0  0
 18 36  1  0  0  0  0
 19 23  1  6  0  0  0
 19 37  1  0  0  0  0
 20 38  1  0  0  0  0
 21 24  1  0  0  0  0
 22 25  1  0  0  0  0
 23 39  1  0  0  0  0
 23 40  1  0  0  0  0
 24 27  1  0  0  0  0
 24 41  1  0  0  0  0
 24 42  1  0  0  0  0
 25 28  1  0  0  0  0
 25 43  1  0  0  0  0
 25 44  1  0  0  0  0
 26 29  1  0  0  0  0
 26 45  1  0  0  0  0
 27 30  1  0  0  0  0
 27 46  1  0  0  0  0
 27 47  1  0  0  0  0
 28 31  1  0  0  0  0
 28 48  1  0  0  0  0
 28 49  1  0  0  0  0
 29 32  1  0  0  0  0
 29 50  1  0  0  0  0
 32 33  1  0  0  0  0
 32 52  1  0  0  0  0
 33 34  1  0  0  0  0
 33 53  1  0  0  0  0
 34 35  1  1  0  0  0
 34 54  1  0  0  0  0
 35 56  1  0  0  0  0
 35 57  1  0  0  0  0
M  END
> <PUBCHEM_COMPOUND_CID>
123738953

> <PUBCHEM_COMPOUND_CANONICALIZED>
1

> <PUBCHEM_CACTVS_COMPLEXITY>
892

> <PUBCHEM_CACTVS_HBOND_ACCEPTOR>
15

> <PUBCHEM_CACTVS_HBOND_DONOR>
6

> <PUBCHEM_CACTVS_ROTATABLE_BOND>
4

> <PUBCHEM_CACTVS_SUBSKEYS>
AAADceB4PAAAAAAAAAAAAAAAAAAAAAAAAAAkSJEgAAAAAAAAAAAAGgAACAAADFSwgAMACAAABgAIAICQCAIAAAAAAAAAAAFAAAAREBYAAAQiQAAFIAAHAAHL7PzOgAAAAAAAAAAAAAAAAAAAAAAAAAAAAA==

> <PUBCHEM_IUPAC_OPENEYE_NAME>
(6R,7R,13R,14R,16R)-13-hydroxy-16-(hydroxymethyl)-14-[(2R,3R,4S,5S,6R)-3,4,5-trihydroxy-6-(hydroxymethyl)tetrahydropyran-2-yl]oxy-5,8,15-trioxadispiro[5.0.57.46]hexadecane-1,4,9,12-tetrone

> <PUBCHEM_IUPAC_CAS_NAME>
(6R,7R,13R,14R,16R)-13-hydroxy-16-(hydroxymethyl)-14-[[(2R,3R,4S,5S,6R)-3,4,5-trihydroxy-6-(hydroxymethyl)-2-oxanyl]oxy]-5,8,15-trioxadispiro[5.0.57.46]hexadecane-1,4,9,12-tetrone

> <PUBCHEM_IUPAC_NAME_MARKUP>
(6<I>R</I>,7<I>R</I>,13<I>R</I>,14<I>R</I>,16<I>R</I>)-13-hydroxy-16-(hydroxymethyl)-14-[(2<I>R</I>,3<I>R</I>,4<I>S</I>,5<I>S</I>,6<I>R</I>)-3,4,5-trihydroxy-6-(hydroxymethyl)oxan-2-yl]oxy-5,8,15-trioxadispiro[5.0.5<SUP>7</SUP>.4<SUP>6</SUP>]hexadecane-1,4,9,12-tetrone

> <PUBCHEM_IUPAC_NAME>
(6R,7R,13R,14R,16R)-13-hydroxy-16-(hydroxymethyl)-14-[(2R,3R,4S,5S,6R)-3,4,5-trihydroxy-6-(hydroxymethyl)oxan-2-yl]oxy-5,8,15-trioxadispiro[5.0.57.46]hexadecane-1,4,9,12-tetrone

> <PUBCHEM_IUPAC_SYSTEMATIC_NAME>
(6R,7R,13R,14R,16R)-16-(hydroxymethyl)-14-[(2R,3R,4S,5S,6R)-6-(hydroxymethyl)-3,4,5-tris(oxidanyl)oxan-2-yl]oxy-13-oxidanyl-5,8,15-trioxadispiro[5.0.57.46]hexadecane-1,4,9,12-tetrone

> <PUBCHEM_IUPAC_TRADITIONAL_NAME>
(6R,7R,13R,14R,16R)-13-hydroxy-16-methylol-14-[(2R,3R,4S,5S,6R)-3,4,5-trihydroxy-6-methylol-tetrahydropyran-2-yl]oxy-5,8,15-trioxadispiro[5.0.57.46]hexadecane-1,4,9,12-diquinone

> <PUBCHEM_IUPAC_INCHI>
InChI=1S/C20H26O15/c21-5-7-13(27)14(28)15(29)17(31-7)33-18-16(30)20(9(24)2-4-12(26)35-20)19(10(6-22)32-18)8(23)1-3-11(25)34-19/h7,10,13-18,21-22,27-30H,1-6H2/t7-,10-,13-,14+,15-,16+,17-,18-,19-,20-/m1/s1

> <PUBCHEM_IUPAC_INCHIKEY>
MXDIHIUOQDPOND-PQEUDPKGSA-N

> <PUBCHEM_XLOGP3_AA>
-5

> <PUBCHEM_EXACT_MASS>
506.12717012

> <PUBCHEM_MOLECULAR_FORMULA>
C20H26O15

> <PUBCHEM_MOLECULAR_WEIGHT>
506.4

> <PUBCHEM_OPENEYE_CAN_SMILES>
C1CC(=O)OC2(C1=O)C(OC(C(C23C(=O)CCC(=O)O3)O)OC4C(C(C(C(O4)CO)O)O)O)CO

> <PUBCHEM_OPENEYE_ISO_SMILES>
C1CC(=O)O[C@]2(C1=O)[C@H](O[C@@H]([C@@H]([C@]23C(=O)CCC(=O)O3)O)O[C@@H]4[C@@H]([C@H]([C@@H]([C@H](O4)CO)O)O)O)CO

> <PUBCHEM_CACTVS_TPSA>
236

> <PUBCHEM_MONOISOTOPIC_WEIGHT>
506.12717012

> <PUBCHEM_TOTAL_CHARGE>
0

> <PUBCHEM_HEAVY_ATOM_COUNT>
35

> <PUBCHEM_ATOM_DEF_STEREO_COUNT>
10

> <PUBCHEM_ATOM_UDEF_STEREO_COUNT>
0

> <PUBCHEM_BOND_DEF_STEREO_COUNT>
0

> <PUBCHEM_BOND_UDEF_STEREO_COUNT>
0

> <PUBCHEM_ISOTOPIC_ATOM_COUNT>
0

> <PUBCHEM_COMPONENT_COUNT>
1

> <PUBCHEM_CACTVS_TAUTO_COUNT>
-1

> <PUBCHEM_COORDINATE_TYPE>
1
5
255

> <PUBCHEM_BONDANNOTATIONS>
29  10  6
32  11  5
33  14  6
19  23  6
16  2  6
17  3  5
34  35  5
20  4  5
26  4  6
18  5  5

$$$$
