 
  -OEChem-10192103492D

 43 45  0     0  0  0  0  0  0999 V2000
    6.0682   -1.1900    0.0000 O   0  0  0  0  0  0  0  0  0  0  0  0
    6.0682    1.8100    0.0000 O   0  0  0  0  0  0  0  0  0  0  0  0
    6.9343   -2.6900    0.0000 O   0  0  0  0  0  0  0  0  0  0  0  0
    2.5381   -1.2142    0.0000 O   0  0  0  0  0  0  0  0  0  0  0  0
   10.3984   -2.6900    0.0000 O   0  0  0  0  0  0  0  0  0  0  0  0
    6.9343    0.3100    0.0000 C   0  0  0  0  0  0  0  0  0  0  0  0
    6.9343   -0.6900    0.0000 C   0  0  0  0  0  0  0  0  0  0  0  0
    7.8003    0.8100    0.0000 C   0  0  0  0  0  0  0  0  0  0  0  0
    5.2022    0.3100    0.0000 C   0  0  0  0  0  0  0  0  0  0  0  0
    6.0682    0.8100    0.0000 C   0  0  0  0  0  0  0  0  0  0  0  0
    5.2022   -0.6900    0.0000 C   0  0  0  0  0  0  0  0  0  0  0  0
    7.8003   -1.1900    0.0000 C   0  0  0  0  0  0  0  0  0  0  0  0
    7.8003    1.8100    0.0000 C   0  0  0  0  0  0  0  0  0  0  0  0
    4.3083    0.8447    0.0000 C   0  0  0  0  0  0  0  0  0  0  0  0
    4.3083   -1.2247    0.0000 C   0  0  0  0  0  0  0  0  0  0  0  0
    7.8003   -2.1900    0.0000 C   0  0  0  0  0  0  0  0  0  0  0  0
    8.6663   -0.6900    0.0000 C   0  0  0  0  0  0  0  0  0  0  0  0
    8.6663    2.3100    0.0000 C   0  0  0  0  0  0  0  0  0  0  0  0
    3.4022   -0.7108    0.0000 C   0  0  0  0  0  0  0  0  0  0  0  0
    3.4022    0.3308    0.0000 C   0  0  0  0  0  0  0  0  0  0  0  0
    8.6663   -2.6900    0.0000 C   0  0  0  0  0  0  0  0  0  0  0  0
    9.5323   -1.1900    0.0000 C   0  0  0  0  0  0  0  0  0  0  0  0
    9.5323   -2.1900    0.0000 C   0  0  0  0  0  0  0  0  0  0  0  0
    8.6663    3.3100    0.0000 C   0  0  0  0  0  0  0  0  0  0  0  0
    9.5323    1.8100    0.0000 C   0  0  0  0  0  0  0  0  0  0  0  0
    8.0124    0.2274    0.0000 H   0  0  0  0  0  0  0  0  0  0  0  0
    8.4109    0.9177    0.0000 H   0  0  0  0  0  0  0  0  0  0  0  0
    7.2634    2.1200    0.0000 H   0  0  0  0  0  0  0  0  0  0  0  0
    4.3154    1.4646    0.0000 H   0  0  0  0  0  0  0  0  0  0  0  0
    4.3154   -1.8446    0.0000 H   0  0  0  0  0  0  0  0  0  0  0  0
    8.6663   -0.0700    0.0000 H   0  0  0  0  0  0  0  0  0  0  0  0
    2.8665    0.6429    0.0000 H   0  0  0  0  0  0  0  0  0  0  0  0
    8.6663   -3.3100    0.0000 H   0  0  0  0  0  0  0  0  0  0  0  0
   10.0693   -0.8800    0.0000 H   0  0  0  0  0  0  0  0  0  0  0  0
    9.2863    3.3100    0.0000 H   0  0  0  0  0  0  0  0  0  0  0  0
    8.6663    3.9300    0.0000 H   0  0  0  0  0  0  0  0  0  0  0  0
    8.0463    3.3100    0.0000 H   0  0  0  0  0  0  0  0  0  0  0  0
    9.2224    1.2731    0.0000 H   0  0  0  0  0  0  0  0  0  0  0  0
   10.0693    1.5000    0.0000 H   0  0  0  0  0  0  0  0  0  0  0  0
    9.8424    2.3469    0.0000 H   0  0  0  0  0  0  0  0  0  0  0  0
    6.9343   -3.3100    0.0000 H   0  0  0  0  0  0  0  0  0  0  0  0
    2.0000   -0.9062    0.0000 H   0  0  0  0  0  0  0  0  0  0  0  0
   10.9353   -2.3800    0.0000 H   0  0  0  0  0  0  0  0  0  0  0  0
  1  7  1  0  0  0  0
  1 11  1  0  0  0  0
  2 10  2  0  0  0  0
  3 16  1  0  0  0  0
  3 41  1  0  0  0  0
  4 19  1  0  0  0  0
  4 42  1  0  0  0  0
  5 23  1  0  0  0  0
  5 43  1  0  0  0  0
  6  7  2  0  0  0  0
  6  8  1  0  0  0  0
  6 10  1  0  0  0  0
  7 12  1  0  0  0  0
  8 13  1  0  0  0  0
  8 26  1  0  0  0  0
  8 27  1  0  0  0  0
  9 10  1  0  0  0  0
  9 11  2  0  0  0  0
  9 14  1  0  0  0  0
 11 15  1  0  0  0  0
 12 16  2  0  0  0  0
 12 17  1  0  0  0  0
 13 18  2  0  0  0  0
 13 28  1  0  0  0  0
 14 20  2  0  0  0  0
 14 29  1  0  0  0  0
 15 19  2  0  0  0  0
 15 30  1  0  0  0  0
 16 21  1  0  0  0  0
 17 22  2  0  0  0  0
 17 31  1  0  0  0  0
 18 24  1  0  0  0  0
 18 25  1  0  0  0  0
 19 20  1  0  0  0  0
 20 32  1  0  0  0  0
 21 23  2  0  0  0  0
 21 33  1  0  0  0  0
 22 23  1  0  0  0  0
 22 34  1  0  0  0  0
 24 35  1  0  0  0  0
 24 36  1  0  0  0  0
 24 37  1  0  0  0  0
 25 38  1  0  0  0  0
 25 39  1  0  0  0  0
 25 40  1  0  0  0  0
M  END
> <PUBCHEM_COMPOUND_CID>
24879178

> <PUBCHEM_COMPOUND_CANONICALIZED>
1

> <PUBCHEM_CACTVS_COMPLEXITY>
575

> <PUBCHEM_CACTVS_HBOND_ACCEPTOR>
5

> <PUBCHEM_CACTVS_HBOND_DONOR>
3

> <PUBCHEM_CACTVS_ROTATABLE_BOND>
3

> <PUBCHEM_CACTVS_SUBSKEYS>
AAADceB4OAAAAAAAAAAAAAAAAAAAAAAAAAAwYIAAAAAAAACBQAAAGgAACAAADASAmAAyBoAABgCIAqBSAAACCAAkIAAIiAEGCMgMJzaGNRqCeWCl4BUIuYeI7KzOIAAACAAIAABAAAAQABAAAAAAAAAAAA==

> <PUBCHEM_IUPAC_OPENEYE_NAME>
2-(2,4-dihydroxyphenyl)-7-hydroxy-3-(3-methylbut-2-enyl)chromen-4-one

> <PUBCHEM_IUPAC_CAS_NAME>
2-(2,4-dihydroxyphenyl)-7-hydroxy-3-(3-methylbut-2-enyl)-1-benzopyran-4-one

> <PUBCHEM_IUPAC_NAME_MARKUP>
2-(2,4-dihydroxyphenyl)-7-hydroxy-3-(3-methylbut-2-enyl)chromen-4-one

> <PUBCHEM_IUPAC_NAME>
2-(2,4-dihydroxyphenyl)-7-hydroxy-3-(3-methylbut-2-enyl)chromen-4-one

> <PUBCHEM_IUPAC_SYSTEMATIC_NAME>
2-[2,4-bis(oxidanyl)phenyl]-3-(3-methylbut-2-enyl)-7-oxidanyl-chromen-4-one

> <PUBCHEM_IUPAC_TRADITIONAL_NAME>
2-(2,4-dihydroxyphenyl)-7-hydroxy-3-(3-methylbut-2-enyl)chromone

> <PUBCHEM_IUPAC_INCHI>
InChI=1S/C20H18O5/c1-11(2)3-6-16-19(24)15-8-5-13(22)10-18(15)25-20(16)14-7-4-12(21)9-17(14)23/h3-5,7-10,21-23H,6H2,1-2H3

> <PUBCHEM_IUPAC_INCHIKEY>
SKEMFCPGGJIQIF-UHFFFAOYSA-N

> <PUBCHEM_XLOGP3>
3.4

> <PUBCHEM_EXACT_MASS>
338.11542367

> <PUBCHEM_MOLECULAR_FORMULA>
C20H18O5

> <PUBCHEM_MOLECULAR_WEIGHT>
338.4

> <PUBCHEM_OPENEYE_CAN_SMILES>
CC(=CCC1=C(OC2=C(C1=O)C=CC(=C2)O)C3=C(C=C(C=C3)O)O)C

> <PUBCHEM_OPENEYE_ISO_SMILES>
CC(=CCC1=C(OC2=C(C1=O)C=CC(=C2)O)C3=C(C=C(C=C3)O)O)C

> <PUBCHEM_CACTVS_TPSA>
87

> <PUBCHEM_MONOISOTOPIC_WEIGHT>
338.11542367

> <PUBCHEM_TOTAL_CHARGE>
0

> <PUBCHEM_HEAVY_ATOM_COUNT>
25

> <PUBCHEM_ATOM_DEF_STEREO_COUNT>
0

> <PUBCHEM_ATOM_UDEF_STEREO_COUNT>
0

> <PUBCHEM_BOND_DEF_STEREO_COUNT>
0

> <PUBCHEM_BOND_UDEF_STEREO_COUNT>
0

> <PUBCHEM_ISOTOPIC_ATOM_COUNT>
0

> <PUBCHEM_COMPONENT_COUNT>
1

> <PUBCHEM_CACTVS_TAUTO_COUNT>
-1

> <PUBCHEM_COORDINATE_TYPE>
1
5
255

> <PUBCHEM_BONDANNOTATIONS>
1  11  8
1  7  8
11  15  8
12  16  8
12  17  8
14  20  8
15  19  8
16  21  8
17  22  8
19  20  8
21  23  8
22  23  8
6  10  8
6  7  8
9  10  8
9  11  8
9  14  8

$$$$
