 
  -OEChem-10192103362D

 21 20  0     1  0  0  0  0  0999 V2000
    2.5369    0.3100    0.0000 O   0  0  0  0  0  0  0  0  0  0  0  0
    3.4030   -1.1900    0.0000 O   0  0  0  0  0  0  0  0  0  0  0  0
    3.4030    1.8100    0.0000 O   0  0  0  0  0  0  0  0  0  0  0  0
    5.1350   -1.1900    0.0000 O   0  0  0  0  0  0  0  0  0  0  0  0
    5.1350    0.8100    0.0000 C   0  0  1  0  0  0  0  0  0  0  0  0
    4.2690    0.3100    0.0000 C   0  0  0  0  0  0  0  0  0  0  0  0
    5.1350    1.8100    0.0000 C   0  0  0  0  0  0  0  0  0  0  0  0
    6.0010    0.3100    0.0000 C   0  0  0  0  0  0  0  0  0  0  0  0
    3.4030    0.8100    0.0000 C   0  0  0  0  0  0  0  0  0  0  0  0
    4.2690   -0.6900    0.0000 C   0  0  0  0  0  0  0  0  0  0  0  0
    6.8671    0.8100    0.0000 C   0  0  0  0  0  0  0  0  0  0  0  0
    5.6720    1.1200    0.0000 H   0  0  0  0  0  0  0  0  0  0  0  0
    4.2690    0.9300    0.0000 H   0  0  0  0  0  0  0  0  0  0  0  0
    5.7550    1.8100    0.0000 H   0  0  0  0  0  0  0  0  0  0  0  0
    5.1350    2.4300    0.0000 H   0  0  0  0  0  0  0  0  0  0  0  0
    4.5150    1.8100    0.0000 H   0  0  0  0  0  0  0  0  0  0  0  0
    6.0010   -0.3100    0.0000 H   0  0  0  0  0  0  0  0  0  0  0  0
    7.4040    0.5000    0.0000 H   0  0  0  0  0  0  0  0  0  0  0  0
    6.8671    1.4300    0.0000 H   0  0  0  0  0  0  0  0  0  0  0  0
    2.0000    0.6200    0.0000 H   0  0  0  0  0  0  0  0  0  0  0  0
    3.4030   -1.8100    0.0000 H   0  0  0  0  0  0  0  0  0  0  0  0
  1  9  1  0  0  0  0
  1 20  1  0  0  0  0
  2 10  1  0  0  0  0
  2 21  1  0  0  0  0
  3  9  2  0  0  0  0
  4 10  2  0  0  0  0
  5  6  1  0  0  0  0
  5  7  1  1  0  0  0
  5  8  1  0  0  0  0
  5 12  1  0  0  0  0
  6  9  1  0  0  0  0
  6 10  1  0  0  0  0
  6 13  1  0  0  0  0
  7 14  1  0  0  0  0
  7 15  1  0  0  0  0
  7 16  1  0  0  0  0
  8 11  2  0  0  0  0
  8 17  1  0  0  0  0
 11 18  1  0  0  0  0
 11 19  1  0  0  0  0
M  END
> <PUBCHEM_COMPOUND_CID>
87148626

> <PUBCHEM_COMPOUND_CANONICALIZED>
1

> <PUBCHEM_CACTVS_COMPLEXITY>
171

> <PUBCHEM_CACTVS_HBOND_ACCEPTOR>
4

> <PUBCHEM_CACTVS_HBOND_DONOR>
2

> <PUBCHEM_CACTVS_ROTATABLE_BOND>
4

> <PUBCHEM_CACTVS_SUBSKEYS>
AAADccBgOAAAAAAAAAAAAAAAAAAAAAAAAAAAAAAAAAAAAAAAAAAAGgAACAAADQCAgAACCAAAAgCIACDSCAAAAAAgAAAIAAEAAAgAABQIAQAAQAAFoAAAAAAAAAAIgAAAAAAAAAAAAAAAAAAAAAAAAAAAAA==

> <PUBCHEM_IUPAC_OPENEYE_NAME>
2-[(1S)-1-methylallyl]propanedioic acid

> <PUBCHEM_IUPAC_CAS_NAME>
2-[(2S)-but-3-en-2-yl]propanedioic acid

> <PUBCHEM_IUPAC_NAME_MARKUP>
2-[(2<I>S</I>)-but-3-en-2-yl]propanedioic acid

> <PUBCHEM_IUPAC_NAME>
2-[(2S)-but-3-en-2-yl]propanedioic acid

> <PUBCHEM_IUPAC_SYSTEMATIC_NAME>
2-[(2S)-but-3-en-2-yl]propanedioic acid

> <PUBCHEM_IUPAC_TRADITIONAL_NAME>
2-[(1S)-1-methylallyl]malonic acid

> <PUBCHEM_IUPAC_INCHI>
InChI=1S/C7H10O4/c1-3-4(2)5(6(8)9)7(10)11/h3-5H,1H2,2H3,(H,8,9)(H,10,11)/t4-/m0/s1

> <PUBCHEM_IUPAC_INCHIKEY>
PXUPGDHUXPGTAC-BYPYZUCNSA-N

> <PUBCHEM_XLOGP3_AA>
1

> <PUBCHEM_EXACT_MASS>
158.05790880

> <PUBCHEM_MOLECULAR_FORMULA>
C7H10O4

> <PUBCHEM_MOLECULAR_WEIGHT>
158.15

> <PUBCHEM_OPENEYE_CAN_SMILES>
CC(C=C)C(C(=O)O)C(=O)O

> <PUBCHEM_OPENEYE_ISO_SMILES>
C[C@@H](C=C)C(C(=O)O)C(=O)O

> <PUBCHEM_CACTVS_TPSA>
74.6

> <PUBCHEM_MONOISOTOPIC_WEIGHT>
158.05790880

> <PUBCHEM_TOTAL_CHARGE>
0

> <PUBCHEM_HEAVY_ATOM_COUNT>
11

> <PUBCHEM_ATOM_DEF_STEREO_COUNT>
1

> <PUBCHEM_ATOM_UDEF_STEREO_COUNT>
0

> <PUBCHEM_BOND_DEF_STEREO_COUNT>
0

> <PUBCHEM_BOND_UDEF_STEREO_COUNT>
0

> <PUBCHEM_ISOTOPIC_ATOM_COUNT>
0

> <PUBCHEM_COMPONENT_COUNT>
1

> <PUBCHEM_CACTVS_TAUTO_COUNT>
-1

> <PUBCHEM_COORDINATE_TYPE>
1
5
255

> <PUBCHEM_BONDANNOTATIONS>
5  7  5

$$$$
