 
  -OEChem-10192103312D

 34 34  0     1  0  0  0  0  0999 V2000
    6.0371    0.7324    0.0000 S   0  0  0  0  0  0  0  0  0  0  0  0
    5.7281   -0.2186    0.0000 P   0  0  0  0  0  0  0  0  0  0  0  0
    2.8090    0.7898    0.0000 O   0  0  0  0  0  0  0  0  0  0  0  0
    4.7770    0.0904    0.0000 O   0  0  0  0  0  0  0  0  0  0  0  0
    6.6791   -0.5276    0.0000 O   0  0  0  0  0  0  0  0  0  0  0  0
    5.4190   -1.1697    0.0000 O   0  0  0  0  0  0  0  0  0  0  0  0
    3.6180    1.3776    0.0000 C   0  0  3  0  0  0  0  0  0  0  0  0
    3.3090    2.3286    0.0000 C   0  0  0  0  0  0  0  0  0  0  0  0
    2.3090    2.3286    0.0000 C   0  0  0  0  0  0  0  0  0  0  0  0
    2.0000    1.3776    0.0000 C   0  0  0  0  0  0  0  0  0  0  0  0
    4.5691    1.0686    0.0000 C   0  0  0  0  0  0  0  0  0  0  0  0
    6.8870   -1.5058    0.0000 C   0  0  0  0  0  0  0  0  0  0  0  0
    4.4409   -1.3776    0.0000 C   0  0  0  0  0  0  0  0  0  0  0  0
    7.8381   -1.8148    0.0000 C   0  0  0  0  0  0  0  0  0  0  0  0
    4.1319   -2.3286    0.0000 C   0  0  0  0  0  0  0  0  0  0  0  0
    3.7150    0.7652    0.0000 H   0  0  0  0  0  0  0  0  0  0  0  0
    3.9155    2.4575    0.0000 H   0  0  0  0  0  0  0  0  0  0  0  0
    3.2442    2.9452    0.0000 H   0  0  0  0  0  0  0  0  0  0  0  0
    2.3738    2.9452    0.0000 H   0  0  0  0  0  0  0  0  0  0  0  0
    1.7026    2.4575    0.0000 H   0  0  0  0  0  0  0  0  0  0  0  0
    1.4336    1.6298    0.0000 H   0  0  0  0  0  0  0  0  0  0  0  0
    1.6900    0.8406    0.0000 H   0  0  0  0  0  0  0  0  0  0  0  0
    5.1887    1.0902    0.0000 H   0  0  0  0  0  0  0  0  0  0  0  0
    4.6554    1.6825    0.0000 H   0  0  0  0  0  0  0  0  0  0  0  0
    6.2674   -1.5274    0.0000 H   0  0  0  0  0  0  0  0  0  0  0  0
    6.8007   -2.1197    0.0000 H   0  0  0  0  0  0  0  0  0  0  0  0
    4.4193   -0.7580    0.0000 H   0  0  0  0  0  0  0  0  0  0  0  0
    3.8269   -1.2913    0.0000 H   0  0  0  0  0  0  0  0  0  0  0  0
    7.6465   -2.4044    0.0000 H   0  0  0  0  0  0  0  0  0  0  0  0
    8.4277   -2.0064    0.0000 H   0  0  0  0  0  0  0  0  0  0  0  0
    8.0297   -1.2251    0.0000 H   0  0  0  0  0  0  0  0  0  0  0  0
    3.5422   -2.1370    0.0000 H   0  0  0  0  0  0  0  0  0  0  0  0
    3.9403   -2.9183    0.0000 H   0  0  0  0  0  0  0  0  0  0  0  0
    4.7215   -2.5202    0.0000 H   0  0  0  0  0  0  0  0  0  0  0  0
  1  2  2  0  0  0  0
  2  4  1  0  0  0  0
  2  5  1  0  0  0  0
  2  6  1  0  0  0  0
  3  7  1  0  0  0  0
  3 10  1  0  0  0  0
  4 11  1  0  0  0  0
  5 12  1  0  0  0  0
  6 13  1  0  0  0  0
  7  8  1  0  0  0  0
  7 11  1  0  0  0  0
  7 16  1  0  0  0  0
  8  9  1  0  0  0  0
  8 17  1  0  0  0  0
  8 18  1  0  0  0  0
  9 10  1  0  0  0  0
  9 19  1  0  0  0  0
  9 20  1  0  0  0  0
 10 21  1  0  0  0  0
 10 22  1  0  0  0  0
 11 23  1  0  0  0  0
 11 24  1  0  0  0  0
 12 14  1  0  0  0  0
 12 25  1  0  0  0  0
 12 26  1  0  0  0  0
 13 15  1  0  0  0  0
 13 27  1  0  0  0  0
 13 28  1  0  0  0  0
 14 29  1  0  0  0  0
 14 30  1  0  0  0  0
 14 31  1  0  0  0  0
 15 32  1  0  0  0  0
 15 33  1  0  0  0  0
 15 34  1  0  0  0  0
M  END
> <PUBCHEM_COMPOUND_CID>
107114

> <PUBCHEM_COMPOUND_CANONICALIZED>
1

> <PUBCHEM_CACTVS_COMPLEXITY>
214

> <PUBCHEM_CACTVS_HBOND_ACCEPTOR>
5

> <PUBCHEM_CACTVS_HBOND_DONOR>
0

> <PUBCHEM_CACTVS_ROTATABLE_BOND>
7

> <PUBCHEM_CACTVS_SUBSKEYS>
AAADceBwOAJAAAAAAAAAAAAAAAAAASAAAAAAAAAAAAAAAAAAAAAAGgAAACAACBSggAICAAAABRAAAAAAAAAAAAAAAAAAAAAAAAABAAIAAAACAAAEAAACAACAIAAAAAAAAAAAAAAAAAAAAAAAAAAAAAAAAA==

> <PUBCHEM_IUPAC_OPENEYE_NAME>
diethoxy-(tetrahydrofuran-2-ylmethoxy)-thioxo-lambda5-phosphane

> <PUBCHEM_IUPAC_CAS_NAME>
diethoxy-(2-oxolanylmethoxy)-sulfanylidenephosphorane

> <PUBCHEM_IUPAC_NAME_MARKUP>
diethoxy-(oxolan-2-ylmethoxy)-sulfanylidene-&lambda;<SUP>5</SUP>-phosphane

> <PUBCHEM_IUPAC_NAME>
diethoxy-(oxolan-2-ylmethoxy)-sulfanylidene-lambda5-phosphane

> <PUBCHEM_IUPAC_SYSTEMATIC_NAME>
diethoxy-(oxolan-2-ylmethoxy)-sulfanylidene-lambda5-phosphane

> <PUBCHEM_IUPAC_TRADITIONAL_NAME>
diethoxy-(tetrahydrofurfuryloxy)-thioxo-phosphorane

> <PUBCHEM_IUPAC_INCHI>
InChI=1S/C9H19O4PS/c1-3-11-14(15,12-4-2)13-8-9-6-5-7-10-9/h9H,3-8H2,1-2H3

> <PUBCHEM_IUPAC_INCHIKEY>
KZAOCXFBXMOEKU-UHFFFAOYSA-N

> <PUBCHEM_XLOGP3_AA>
2.4

> <PUBCHEM_EXACT_MASS>
254.07416725

> <PUBCHEM_MOLECULAR_FORMULA>
C9H19O4PS

> <PUBCHEM_MOLECULAR_WEIGHT>
254.29

> <PUBCHEM_OPENEYE_CAN_SMILES>
CCOP(=S)(OCC)OCC1CCCO1

> <PUBCHEM_OPENEYE_ISO_SMILES>
CCOP(=S)(OCC)OCC1CCCO1

> <PUBCHEM_CACTVS_TPSA>
69

> <PUBCHEM_MONOISOTOPIC_WEIGHT>
254.07416725

> <PUBCHEM_TOTAL_CHARGE>
0

> <PUBCHEM_HEAVY_ATOM_COUNT>
15

> <PUBCHEM_ATOM_DEF_STEREO_COUNT>
0

> <PUBCHEM_ATOM_UDEF_STEREO_COUNT>
1

> <PUBCHEM_BOND_DEF_STEREO_COUNT>
0

> <PUBCHEM_BOND_UDEF_STEREO_COUNT>
0

> <PUBCHEM_ISOTOPIC_ATOM_COUNT>
0

> <PUBCHEM_COMPONENT_COUNT>
1

> <PUBCHEM_CACTVS_TAUTO_COUNT>
1

> <PUBCHEM_COORDINATE_TYPE>
1
5
255

> <PUBCHEM_BONDANNOTATIONS>
7  11  3

$$$$
