 
  -OEChem-10192103352D

 33 34  0     1  0  0  0  0  0999 V2000
    5.5929   -3.7896    0.0000 O   0  0  0  0  0  0  0  0  0  0  0  0
    2.5896   -3.1987    0.0000 O   0  0  0  0  0  0  0  0  0  0  0  0
    3.1249   -1.5514    0.0000 O   0  0  0  0  0  0  0  0  0  0  0  0
    6.8249   -1.2508    0.0000 O   0  0  0  0  0  0  0  0  0  0  0  0
    5.0929   -1.2508    0.0000 N   0  0  0  0  0  0  0  0  0  0  0  0
    5.9589    0.2492    0.0000 N   0  0  0  0  0  0  0  0  0  0  0  0
    7.6339    2.3370    0.0000 N   0  0  0  0  0  0  0  0  0  0  0  0
    6.0159    2.3370    0.0000 N   0  0  0  0  0  0  0  0  0  0  0  0
    7.3249    3.2880    0.0000 N   0  0  0  0  0  0  0  0  0  0  0  0
    6.3249    3.2880    0.0000 N   0  0  0  0  0  0  0  0  0  0  0  0
    5.0929   -2.2508    0.0000 C   0  0  3  0  0  0  0  0  0  0  0  0
    4.2839   -2.8386    0.0000 C   0  0  3  0  0  0  0  0  0  0  0  0
    5.9019   -2.8386    0.0000 C   0  0  0  0  0  0  0  0  0  0  0  0
    4.5929   -3.7896    0.0000 C   0  0  0  0  0  0  0  0  0  0  0  0
    3.3328   -2.5296    0.0000 C   0  0  0  0  0  0  0  0  0  0  0  0
    4.2268   -0.7508    0.0000 C   0  0  0  0  0  0  0  0  0  0  0  0
    5.9589   -0.7508    0.0000 C   0  0  0  0  0  0  0  0  0  0  0  0
    6.8249    0.7492    0.0000 C   0  0  0  0  0  0  0  0  0  0  0  0
    6.8249    1.7492    0.0000 C   0  0  0  0  0  0  0  0  0  0  0  0
    5.6453   -1.9693    0.0000 H   0  0  0  0  0  0  0  0  0  0  0  0
    3.8454   -3.2770    0.0000 H   0  0  0  0  0  0  0  0  0  0  0  0
    6.4683   -3.0908    0.0000 H   0  0  0  0  0  0  0  0  0  0  0  0
    6.2119   -2.3016    0.0000 H   0  0  0  0  0  0  0  0  0  0  0  0
    3.9864   -3.9185    0.0000 H   0  0  0  0  0  0  0  0  0  0  0  0
    4.6577   -4.4062    0.0000 H   0  0  0  0  0  0  0  0  0  0  0  0
    4.5368   -0.2139    0.0000 H   0  0  0  0  0  0  0  0  0  0  0  0
    3.6899   -0.4408    0.0000 H   0  0  0  0  0  0  0  0  0  0  0  0
    3.9168   -1.2877    0.0000 H   0  0  0  0  0  0  0  0  0  0  0  0
    5.4220    0.5592    0.0000 H   0  0  0  0  0  0  0  0  0  0  0  0
    2.0000   -3.0071    0.0000 H   0  0  0  0  0  0  0  0  0  0  0  0
    7.0370    0.1666    0.0000 H   0  0  0  0  0  0  0  0  0  0  0  0
    7.4355    0.8569    0.0000 H   0  0  0  0  0  0  0  0  0  0  0  0
    7.6894    3.7896    0.0000 H   0  0  0  0  0  0  0  0  0  0  0  0
  1 13  1  0  0  0  0
  1 14  1  0  0  0  0
  2 15  1  0  0  0  0
  2 30  1  0  0  0  0
  3 15  2  0  0  0  0
  4 17  2  0  0  0  0
  5 11  1  0  0  0  0
  5 16  1  0  0  0  0
  5 17  1  0  0  0  0
  6 17  1  0  0  0  0
  6 18  1  0  0  0  0
  6 29  1  0  0  0  0
  7  9  1  0  0  0  0
  7 19  2  0  0  0  0
  8 10  2  0  0  0  0
  8 19  1  0  0  0  0
  9 10  1  0  0  0  0
  9 33  1  0  0  0  0
 11 12  1  0  0  0  0
 11 13  1  0  0  0  0
 11 20  1  0  0  0  0
 12 14  1  0  0  0  0
 12 15  1  0  0  0  0
 12 21  1  0  0  0  0
 13 22  1  0  0  0  0
 13 23  1  0  0  0  0
 14 24  1  0  0  0  0
 14 25  1  0  0  0  0
 16 26  1  0  0  0  0
 16 27  1  0  0  0  0
 16 28  1  0  0  0  0
 18 19  1  0  0  0  0
 18 31  1  0  0  0  0
 18 32  1  0  0  0  0
M  END
> <PUBCHEM_COMPOUND_CID>
66265932

> <PUBCHEM_COMPOUND_CANONICALIZED>
1

> <PUBCHEM_CACTVS_COMPLEXITY>
354

> <PUBCHEM_CACTVS_HBOND_ACCEPTOR>
7

> <PUBCHEM_CACTVS_HBOND_DONOR>
3

> <PUBCHEM_CACTVS_ROTATABLE_BOND>
4

> <PUBCHEM_CACTVS_SUBSKEYS>
AAADccBzuAAAAAAAAAAAAAAAAAAAAWJAAAAAAAAAAAAAAAABgAAAHgAYCAAADSjhgwYDGAfCBgAqAAKwOAAAAAIAAAAUIIEYAACCQBwAAAAXQAAPJgIQAABCAAAIAAAAAAAAAAAAAAAAAAAAAAAAAAAAAA==

> <PUBCHEM_IUPAC_OPENEYE_NAME>
4-[methyl(2H-tetrazol-5-ylmethylcarbamoyl)amino]tetrahydrofuran-3-carboxylic acid

> <PUBCHEM_IUPAC_CAS_NAME>
4-[methyl-[oxo-(2H-tetrazol-5-ylmethylamino)methyl]amino]-3-oxolanecarboxylic acid

> <PUBCHEM_IUPAC_NAME_MARKUP>
4-[methyl(2<I>H</I>-tetrazol-5-ylmethylcarbamoyl)amino]oxolane-3-carboxylic acid

> <PUBCHEM_IUPAC_NAME>
4-[methyl(2H-tetrazol-5-ylmethylcarbamoyl)amino]oxolane-3-carboxylic acid

> <PUBCHEM_IUPAC_SYSTEMATIC_NAME>
4-[methyl(2H-1,2,3,4-tetrazol-5-ylmethylcarbamoyl)amino]oxolane-3-carboxylic acid

> <PUBCHEM_IUPAC_TRADITIONAL_NAME>
4-[methyl(2H-tetrazol-5-ylmethylcarbamoyl)amino]tetrahydrofuran-3-carboxylic acid

> <PUBCHEM_IUPAC_INCHI>
InChI=1S/C9H14N6O4/c1-15(6-4-19-3-5(6)8(16)17)9(18)10-2-7-11-13-14-12-7/h5-6H,2-4H2,1H3,(H,10,18)(H,16,17)(H,11,12,13,14)

> <PUBCHEM_IUPAC_INCHIKEY>
UNXHEEHBSBFNHQ-UHFFFAOYSA-N

> <PUBCHEM_XLOGP3_AA>
-2.1

> <PUBCHEM_EXACT_MASS>
270.10765295

> <PUBCHEM_MOLECULAR_FORMULA>
C9H14N6O4

> <PUBCHEM_MOLECULAR_WEIGHT>
270.25

> <PUBCHEM_OPENEYE_CAN_SMILES>
CN(C1COCC1C(=O)O)C(=O)NCC2=NNN=N2

> <PUBCHEM_OPENEYE_ISO_SMILES>
CN(C1COCC1C(=O)O)C(=O)NCC2=NNN=N2

> <PUBCHEM_CACTVS_TPSA>
133

> <PUBCHEM_MONOISOTOPIC_WEIGHT>
270.10765295

> <PUBCHEM_TOTAL_CHARGE>
0

> <PUBCHEM_HEAVY_ATOM_COUNT>
19

> <PUBCHEM_ATOM_DEF_STEREO_COUNT>
0

> <PUBCHEM_ATOM_UDEF_STEREO_COUNT>
2

> <PUBCHEM_BOND_DEF_STEREO_COUNT>
0

> <PUBCHEM_BOND_UDEF_STEREO_COUNT>
0

> <PUBCHEM_ISOTOPIC_ATOM_COUNT>
0

> <PUBCHEM_COMPONENT_COUNT>
1

> <PUBCHEM_CACTVS_TAUTO_COUNT>
-1

> <PUBCHEM_COORDINATE_TYPE>
1
5
255

> <PUBCHEM_BONDANNOTATIONS>
12  15  3
11  5  3
7  19  8
7  9  8
8  10  8
8  19  8
9  10  8

$$$$
