 
  -OEChem-10192103592D

 36 35  0     1  0  0  0  0  0999 V2000
    9.9651   -1.0675    0.0000 S   0  0  0  0  0  0  0  0  0  0  0  0
    9.4651   -0.2015    0.0000 P   0  0  3  0  0  0  0  0  0  0  0  0
    8.5991   -0.7015    0.0000 O   0  0  0  0  0  0  0  0  0  0  0  0
   10.3312    0.2985    0.0000 O   0  0  0  0  0  0  0  0  0  0  0  0
    2.5369   -0.2015    0.0000 O   0  0  0  0  0  0  0  0  0  0  0  0
    8.9651    0.6645    0.0000 O   0  0  0  0  0  0  0  0  0  0  0  0
    6.0010   -0.2015    0.0000 C   0  0  0  0  0  0  0  0  0  0  0  0
    5.1350   -0.7015    0.0000 C   0  0  0  0  0  0  0  0  0  0  0  0
    6.8671   -0.7015    0.0000 C   0  0  0  0  0  0  0  0  0  0  0  0
    4.2690   -0.2015    0.0000 C   0  0  0  0  0  0  0  0  0  0  0  0
    7.7331   -0.2015    0.0000 C   0  0  0  0  0  0  0  0  0  0  0  0
    3.4030   -0.7015    0.0000 C   0  0  0  0  0  0  0  0  0  0  0  0
   11.1972   -0.2015    0.0000 C   0  0  0  0  0  0  0  0  0  0  0  0
   12.0632    0.2985    0.0000 C   0  0  0  0  0  0  0  0  0  0  0  0
   11.1972   -1.2015    0.0000 C   0  0  0  0  0  0  0  0  0  0  0  0
    6.3996    0.2735    0.0000 H   0  0  0  0  0  0  0  0  0  0  0  0
    5.6025    0.2735    0.0000 H   0  0  0  0  0  0  0  0  0  0  0  0
    4.7365   -1.1764    0.0000 H   0  0  0  0  0  0  0  0  0  0  0  0
    5.5335   -1.1764    0.0000 H   0  0  0  0  0  0  0  0  0  0  0  0
    6.4685   -1.1764    0.0000 H   0  0  0  0  0  0  0  0  0  0  0  0
    7.2656   -1.1764    0.0000 H   0  0  0  0  0  0  0  0  0  0  0  0
    4.6675    0.2735    0.0000 H   0  0  0  0  0  0  0  0  0  0  0  0
    3.8705    0.2735    0.0000 H   0  0  0  0  0  0  0  0  0  0  0  0
    8.1316    0.2735    0.0000 H   0  0  0  0  0  0  0  0  0  0  0  0
    7.3346    0.2735    0.0000 H   0  0  0  0  0  0  0  0  0  0  0  0
    3.0044   -1.1764    0.0000 H   0  0  0  0  0  0  0  0  0  0  0  0
    3.8015   -1.1764    0.0000 H   0  0  0  0  0  0  0  0  0  0  0  0
   10.6603   -0.5115    0.0000 H   0  0  0  0  0  0  0  0  0  0  0  0
   12.3732   -0.2384    0.0000 H   0  0  0  0  0  0  0  0  0  0  0  0
   12.6002    0.6085    0.0000 H   0  0  0  0  0  0  0  0  0  0  0  0
   11.7532    0.8355    0.0000 H   0  0  0  0  0  0  0  0  0  0  0  0
   10.5772   -1.2015    0.0000 H   0  0  0  0  0  0  0  0  0  0  0  0
   11.1972   -1.8215    0.0000 H   0  0  0  0  0  0  0  0  0  0  0  0
   11.8172   -1.2015    0.0000 H   0  0  0  0  0  0  0  0  0  0  0  0
    2.0000   -0.5115    0.0000 H   0  0  0  0  0  0  0  0  0  0  0  0
    9.2751    1.2015    0.0000 H   0  0  0  0  0  0  0  0  0  0  0  0
  1  2  2  0  0  0  0
  2  3  1  0  0  0  0
  2  4  1  0  0  0  0
  2  6  1  0  0  0  0
  3 11  1  0  0  0  0
  4 13  1  0  0  0  0
  5 12  1  0  0  0  0
  5 35  1  0  0  0  0
  6 36  1  0  0  0  0
  7  8  1  0  0  0  0
  7  9  1  0  0  0  0
  7 16  1  0  0  0  0
  7 17  1  0  0  0  0
  8 10  1  0  0  0  0
  8 18  1  0  0  0  0
  8 19  1  0  0  0  0
  9 11  1  0  0  0  0
  9 20  1  0  0  0  0
  9 21  1  0  0  0  0
 10 12  1  0  0  0  0
 10 22  1  0  0  0  0
 10 23  1  0  0  0  0
 11 24  1  0  0  0  0
 11 25  1  0  0  0  0
 12 26  1  0  0  0  0
 12 27  1  0  0  0  0
 13 14  1  0  0  0  0
 13 15  1  0  0  0  0
 13 28  1  0  0  0  0
 14 29  1  0  0  0  0
 14 30  1  0  0  0  0
 14 31  1  0  0  0  0
 15 32  1  0  0  0  0
 15 33  1  0  0  0  0
 15 34  1  0  0  0  0
M  END
> <PUBCHEM_COMPOUND_CID>
122435085

> <PUBCHEM_COMPOUND_CANONICALIZED>
1

> <PUBCHEM_CACTVS_COMPLEXITY>
199

> <PUBCHEM_CACTVS_HBOND_ACCEPTOR>
5

> <PUBCHEM_CACTVS_HBOND_DONOR>
2

> <PUBCHEM_CACTVS_ROTATABLE_BOND>
9

> <PUBCHEM_CACTVS_SUBSKEYS>
AAADceBwOAJAAAAAAAAAAAAAAAAAAAAAAAAAAAAAAAAAAAAAAAAAGgAACCAACBSggAICAAAAAxAAAAAAAAAAAAAAAAAAAAAAAAAAEAIAAAAAQAAEAAAAAAGAQAAAAAAAAAAAAAAAAAAAAAAAAAAAAAAAAA==

> <PUBCHEM_IUPAC_OPENEYE_NAME>
6-[hydroxy(isopropoxy)phosphinothioyl]oxyhexan-1-ol

> <PUBCHEM_IUPAC_CAS_NAME>
6-[hydroxy(propan-2-yloxy)phosphinothioyl]oxy-1-hexanol

> <PUBCHEM_IUPAC_NAME_MARKUP>
6-[hydroxy(propan-2-yloxy)phosphinothioyl]oxyhexan-1-ol

> <PUBCHEM_IUPAC_NAME>
6-[hydroxy(propan-2-yloxy)phosphinothioyl]oxyhexan-1-ol

> <PUBCHEM_IUPAC_SYSTEMATIC_NAME>
6-[oxidanyl(propan-2-yloxy)phosphinothioyl]oxyhexan-1-ol

> <PUBCHEM_IUPAC_TRADITIONAL_NAME>
6-[hydroxy(isopropoxy)thiophosphoryl]oxyhexan-1-ol

> <PUBCHEM_IUPAC_INCHI>
InChI=1S/C9H21O4PS/c1-9(2)13-14(11,15)12-8-6-4-3-5-7-10/h9-10H,3-8H2,1-2H3,(H,11,15)

> <PUBCHEM_IUPAC_INCHIKEY>
LLPSFTPGKSLVBO-UHFFFAOYSA-N

> <PUBCHEM_XLOGP3_AA>
2.3

> <PUBCHEM_EXACT_MASS>
256.08981732

> <PUBCHEM_MOLECULAR_FORMULA>
C9H21O4PS

> <PUBCHEM_MOLECULAR_WEIGHT>
256.30

> <PUBCHEM_OPENEYE_CAN_SMILES>
CC(C)OP(=S)(O)OCCCCCCO

> <PUBCHEM_OPENEYE_ISO_SMILES>
CC(C)OP(=S)(O)OCCCCCCO

> <PUBCHEM_CACTVS_TPSA>
91

> <PUBCHEM_MONOISOTOPIC_WEIGHT>
256.08981732

> <PUBCHEM_TOTAL_CHARGE>
0

> <PUBCHEM_HEAVY_ATOM_COUNT>
15

> <PUBCHEM_ATOM_DEF_STEREO_COUNT>
0

> <PUBCHEM_ATOM_UDEF_STEREO_COUNT>
0

> <PUBCHEM_BOND_DEF_STEREO_COUNT>
0

> <PUBCHEM_BOND_UDEF_STEREO_COUNT>
0

> <PUBCHEM_ISOTOPIC_ATOM_COUNT>
0

> <PUBCHEM_COMPONENT_COUNT>
1

> <PUBCHEM_CACTVS_TAUTO_COUNT>
-1

> <PUBCHEM_COORDINATE_TYPE>
1
5
255

$$$$
