 
  -OEChem-10192104202D

 51 53  0     1  0  0  0  0  0999 V2000
    8.4752    2.0072    0.0000 S   0  0  0  0  0  0  0  0  0  0  0  0
    5.9405    0.2427    0.0000 O   0  0  0  0  0  0  0  0  0  0  0  0
    3.4026    0.7471    0.0000 O   0  0  0  0  0  0  0  0  0  0  0  0
    4.6844    2.5050    0.0000 O   0  0  0  0  0  0  0  0  0  0  0  0
    7.6651    1.4208    0.0000 O   0  0  0  0  0  0  0  0  0  0  0  0
    9.0615    1.1972    0.0000 O   0  0  0  0  0  0  0  0  0  0  0  0
    7.8888    2.8172    0.0000 O   0  0  0  0  0  0  0  0  0  0  0  0
   10.3008    1.1906    0.0000 O   0  0  0  0  0  0  0  0  0  0  0  0
   12.6281    3.9444    0.0000 O   0  0  0  0  0  0  0  0  0  0  0  0
    4.6783   -1.0152    0.0000 N   0  0  0  0  0  0  0  0  0  0  0  0
    4.6783   -2.6246    0.0000 N   0  0  0  0  0  0  0  0  0  0  0  0
    2.8660   -0.8199    0.0000 N   0  0  0  0  0  0  0  0  0  0  0  0
    9.2852    2.5936    0.0000 N   0  0  0  0  0  0  0  0  0  0  0  0
    2.0000   -2.3199    0.0000 N   0  0  0  0  0  0  0  0  0  0  0  0
    2.8660   -3.8199    0.0000 N   0  0  0  0  0  0  0  0  0  0  0  0
   10.9053    3.7663    0.0000 N   0  0  0  0  0  0  0  0  0  0  0  0
   13.6438    2.5414    0.0000 N   0  0  0  0  0  0  0  0  0  0  0  0
    4.4026    0.7454    0.0000 C   0  0  2  0  0  0  0  0  0  0  0  0
    4.9917    1.5534    0.0000 C   0  0  1  0  0  0  0  0  0  0  0  0
    4.9889   -0.0646    0.0000 C   0  0  1  0  0  0  0  0  0  0  0  0
    5.9422    1.2427    0.0000 C   0  0  1  0  0  0  0  0  0  0  0  0
    6.7523    1.8291    0.0000 C   0  0  0  0  0  0  0  0  0  0  0  0
    3.7320   -1.3199    0.0000 C   0  0  0  0  0  0  0  0  0  0  0  0
    5.2619   -1.8199    0.0000 C   0  0  0  0  0  0  0  0  0  0  0  0
    3.7320   -2.3199    0.0000 C   0  0  0  0  0  0  0  0  0  0  0  0
    2.8660   -2.8199    0.0000 C   0  0  0  0  0  0  0  0  0  0  0  0
    2.0000   -1.3199    0.0000 C   0  0  0  0  0  0  0  0  0  0  0  0
   11.0081    2.7716    0.0000 C   0  0  2  0  0  0  0  0  0  0  0  0
   10.1980    2.1852    0.0000 C   0  0  0  0  0  0  0  0  0  0  0  0
   11.9209    2.3633    0.0000 C   0  0  0  0  0  0  0  0  0  0  0  0
   12.7309    2.9497    0.0000 C   0  0  0  0  0  0  0  0  0  0  0  0
    4.1220    1.2983    0.0000 H   0  0  0  0  0  0  0  0  0  0  0  0
    5.4309    1.9910    0.0000 H   0  0  0  0  0  0  0  0  0  0  0  0
    5.4266   -0.5038    0.0000 H   0  0  0  0  0  0  0  0  0  0  0  0
    6.4942    0.9603    0.0000 H   0  0  0  0  0  0  0  0  0  0  0  0
    7.0999    2.3425    0.0000 H   0  0  0  0  0  0  0  0  0  0  0  0
    6.3070    2.2606    0.0000 H   0  0  0  0  0  0  0  0  0  0  0  0
    3.0935    1.2846    0.0000 H   0  0  0  0  0  0  0  0  0  0  0  0
    5.1000    2.9650    0.0000 H   0  0  0  0  0  0  0  0  0  0  0  0
    5.8819   -1.8199    0.0000 H   0  0  0  0  0  0  0  0  0  0  0  0
    9.2215    3.2103    0.0000 H   0  0  0  0  0  0  0  0  0  0  0  0
    1.4631   -1.0099    0.0000 H   0  0  0  0  0  0  0  0  0  0  0  0
   10.4421    3.0248    0.0000 H   0  0  0  0  0  0  0  0  0  0  0  0
    2.3291   -4.1299    0.0000 H   0  0  0  0  0  0  0  0  0  0  0  0
    3.4030   -4.1299    0.0000 H   0  0  0  0  0  0  0  0  0  0  0  0
   11.5733    1.8499    0.0000 H   0  0  0  0  0  0  0  0  0  0  0  0
   12.3662    1.9319    0.0000 H   0  0  0  0  0  0  0  0  0  0  0  0
   11.4075    4.1299    0.0000 H   0  0  0  0  0  0  0  0  0  0  0  0
   10.3393    4.0195    0.0000 H   0  0  0  0  0  0  0  0  0  0  0  0
   14.1460    2.9049    0.0000 H   0  0  0  0  0  0  0  0  0  0  0  0
   13.7075    1.9247    0.0000 H   0  0  0  0  0  0  0  0  0  0  0  0
  1  5  1  0  0  0  0
  1  6  2  0  0  0  0
  1  7  2  0  0  0  0
  1 13  1  0  0  0  0
  2 20  1  0  0  0  0
  2 21  1  0  0  0  0
 18  3  1  6  0  0  0
  3 38  1  0  0  0  0
 19  4  1  6  0  0  0
  4 39  1  0  0  0  0
  5 22  1  0  0  0  0
  8 29  2  0  0  0  0
  9 31  2  0  0  0  0
 20 10  1  1  0  0  0
 10 23  1  0  0  0  0
 10 24  1  0  0  0  0
 11 24  2  0  0  0  0
 11 25  1  0  0  0  0
 12 23  2  0  0  0  0
 12 27  1  0  0  0  0
 13 29  1  0  0  0  0
 13 41  1  0  0  0  0
 14 26  1  0  0  0  0
 14 27  2  0  0  0  0
 15 26  1  0  0  0  0
 15 44  1  0  0  0  0
 15 45  1  0  0  0  0
 28 16  1  1  0  0  0
 16 48  1  0  0  0  0
 16 49  1  0  0  0  0
 17 31  1  0  0  0  0
 17 50  1  0  0  0  0
 17 51  1  0  0  0  0
 18 19  1  0  0  0  0
 18 20  1  0  0  0  0
 18 32  1  0  0  0  0
 19 21  1  0  0  0  0
 19 33  1  0  0  0  0
 20 34  1  0  0  0  0
 21 22  1  1  0  0  0
 21 35  1  0  0  0  0
 22 36  1  0  0  0  0
 22 37  1  0  0  0  0
 23 25  1  0  0  0  0
 24 40  1  0  0  0  0
 25 26  2  0  0  0  0
 27 42  1  0  0  0  0
 28 29  1  0  0  0  0
 28 30  1  0  0  0  0
 28 43  1  0  0  0  0
 30 31  1  0  0  0  0
 30 46  1  0  0  0  0
 30 47  1  0  0  0  0
M  END
> <PUBCHEM_COMPOUND_CID>
6852127

> <PUBCHEM_COMPOUND_CANONICALIZED>
1

> <PUBCHEM_CACTVS_COMPLEXITY>
781

> <PUBCHEM_CACTVS_HBOND_ACCEPTOR>
13

> <PUBCHEM_CACTVS_HBOND_DONOR>
6

> <PUBCHEM_CACTVS_ROTATABLE_BOND>
8

> <PUBCHEM_CACTVS_SUBSKEYS>
AAADceBz/ABAAAAAAAAAAAAAAAAAAWJAAAAsAAAAAAAAAFgB+AAAHgAQSAAACDzhlwYF8L9MFgCoAQdxdDCAgC0REKABUKGoVBCDWBpAyEAeRAgPEALTACD1MAIAAAAAAAAAAAAAAAAAAAAAAAAAAAAAAA==

> <PUBCHEM_IUPAC_OPENEYE_NAME>
[(2R,3S,4R,5R)-5-(6-aminopurin-9-yl)-3,4-dihydroxy-tetrahydrofuran-2-yl]methyl N-[(2S)-2,4-diamino-4-oxo-butanoyl]sulfamate

> <PUBCHEM_IUPAC_CAS_NAME>
N-[(2S)-2,4-diamino-1,4-dioxobutyl]sulfamic acid [(2R,3S,4R,5R)-5-(6-aminopurin-9-yl)-3,4-dihydroxy-2-oxolanyl]methyl ester

> <PUBCHEM_IUPAC_NAME_MARKUP>
[(2<I>R</I>,3<I>S</I>,4<I>R</I>,5<I>R</I>)-5-(6-aminopurin-9-yl)-3,4-dihydroxyoxolan-2-yl]methyl <I>N</I>-[(2<I>S</I>)-2,4-diamino-4-oxobutanoyl]sulfamate

> <PUBCHEM_IUPAC_NAME>
[(2R,3S,4R,5R)-5-(6-aminopurin-9-yl)-3,4-dihydroxyoxolan-2-yl]methyl N-[(2S)-2,4-diamino-4-oxobutanoyl]sulfamate

> <PUBCHEM_IUPAC_SYSTEMATIC_NAME>
[(2R,3S,4R,5R)-5-(6-aminopurin-9-yl)-3,4-bis(oxidanyl)oxolan-2-yl]methyl N-[(2S)-2,4-bis(azanyl)-4-oxidanylidene-butanoyl]sulfamate

> <PUBCHEM_IUPAC_TRADITIONAL_NAME>
N-[(2S)-2,4-diamino-4-keto-butanoyl]sulfamic acid [(2R,3S,4R,5R)-5-adenin-9-yl-3,4-dihydroxy-tetrahydrofuran-2-yl]methyl ester

> <PUBCHEM_IUPAC_INCHI>
InChI=1S/C14H20N8O8S/c15-5(1-7(16)23)13(26)21-31(27,28)29-2-6-9(24)10(25)14(30-6)22-4-20-8-11(17)18-3-19-12(8)22/h3-6,9-10,14,24-25H,1-2,15H2,(H2,16,23)(H,21,26)(H2,17,18,19)/t5-,6+,9+,10+,14+/m0/s1

> <PUBCHEM_IUPAC_INCHIKEY>
MOAVDHSPHZUJSX-UFIIOMENSA-N

> <PUBCHEM_XLOGP3>
-4.8

> <PUBCHEM_EXACT_MASS>
460.11248080

> <PUBCHEM_MOLECULAR_FORMULA>
C14H20N8O8S

> <PUBCHEM_MOLECULAR_WEIGHT>
460.43

> <PUBCHEM_OPENEYE_CAN_SMILES>
C1=NC(=C2C(=N1)N(C=N2)C3C(C(C(O3)COS(=O)(=O)NC(=O)C(CC(=O)N)N)O)O)N

> <PUBCHEM_OPENEYE_ISO_SMILES>
C1=NC(=C2C(=N1)N(C=N2)[C@H]3[C@@H]([C@@H]([C@H](O3)COS(=O)(=O)NC(=O)[C@H](CC(=O)N)N)O)O)N

> <PUBCHEM_CACTVS_TPSA>
269

> <PUBCHEM_MONOISOTOPIC_WEIGHT>
460.11248080

> <PUBCHEM_TOTAL_CHARGE>
0

> <PUBCHEM_HEAVY_ATOM_COUNT>
31

> <PUBCHEM_ATOM_DEF_STEREO_COUNT>
5

> <PUBCHEM_ATOM_UDEF_STEREO_COUNT>
0

> <PUBCHEM_BOND_DEF_STEREO_COUNT>
0

> <PUBCHEM_BOND_UDEF_STEREO_COUNT>
0

> <PUBCHEM_ISOTOPIC_ATOM_COUNT>
0

> <PUBCHEM_COMPONENT_COUNT>
1

> <PUBCHEM_CACTVS_TAUTO_COUNT>
-1

> <PUBCHEM_COORDINATE_TYPE>
1
5
255

> <PUBCHEM_BONDANNOTATIONS>
20  10  5
10  23  8
10  24  8
11  24  8
11  25  8
12  23  8
12  27  8
14  26  8
14  27  8
28  16  5
21  22  5
23  25  8
25  26  8
18  3  6
19  4  6

$$$$
