 
  -OEChem-10192104342D

 33 32  0     1  0  0  0  0  0999 V2000
   10.3312   -0.7390    0.0000 S   0  0  0  0  0  0  0  0  0  0  0  0
    6.8671   -0.7390    0.0000 P   0  0  3  0  0  0  0  0  0  0  0  0
    7.7331   -0.2390    0.0000 O   0  0  0  0  0  0  0  0  0  0  0  0
    6.0010   -1.2390    0.0000 O   0  0  0  0  0  0  0  0  0  0  0  0
    6.3671    0.1270    0.0000 O   0  0  0  0  0  0  0  0  0  0  0  0
    7.3671   -1.6051    0.0000 O   0  0  0  0  0  0  0  0  0  0  0  0
    3.4030   -0.7390    0.0000 O   0  0  0  0  0  0  0  0  0  0  0  0
    2.5369   -1.2390    0.0000 N   0  0  0  0  0  0  0  0  0  0  0  0
    8.5991   -0.7390    0.0000 C   0  0  0  0  0  0  0  0  0  0  0  0
    5.1350   -0.7390    0.0000 C   0  0  0  0  0  0  0  0  0  0  0  0
    9.4651   -0.2390    0.0000 C   0  0  0  0  0  0  0  0  0  0  0  0
    6.8671    0.9930    0.0000 C   0  0  0  0  0  0  0  0  0  0  0  0
    4.2690   -1.2390    0.0000 C   0  0  0  0  0  0  0  0  0  0  0  0
    6.3671    1.8590    0.0000 C   0  0  0  0  0  0  0  0  0  0  0  0
   11.1972   -0.2390    0.0000 C   0  0  0  0  0  0  0  0  0  0  0  0
    8.2006   -1.2140    0.0000 H   0  0  0  0  0  0  0  0  0  0  0  0
    8.9976   -1.2140    0.0000 H   0  0  0  0  0  0  0  0  0  0  0  0
    5.5335   -0.2641    0.0000 H   0  0  0  0  0  0  0  0  0  0  0  0
    4.7365   -0.2641    0.0000 H   0  0  0  0  0  0  0  0  0  0  0  0
    9.8637    0.2359    0.0000 H   0  0  0  0  0  0  0  0  0  0  0  0
    9.0666    0.2359    0.0000 H   0  0  0  0  0  0  0  0  0  0  0  0
    7.3420    0.5945    0.0000 H   0  0  0  0  0  0  0  0  0  0  0  0
    7.3420    1.3915    0.0000 H   0  0  0  0  0  0  0  0  0  0  0  0
    3.8705   -1.7140    0.0000 H   0  0  0  0  0  0  0  0  0  0  0  0
    4.6675   -1.7140    0.0000 H   0  0  0  0  0  0  0  0  0  0  0  0
    6.9040    2.1690    0.0000 H   0  0  0  0  0  0  0  0  0  0  0  0
    6.0571    2.3960    0.0000 H   0  0  0  0  0  0  0  0  0  0  0  0
    5.8301    1.5490    0.0000 H   0  0  0  0  0  0  0  0  0  0  0  0
   11.5072   -0.7760    0.0000 H   0  0  0  0  0  0  0  0  0  0  0  0
   11.7341    0.0710    0.0000 H   0  0  0  0  0  0  0  0  0  0  0  0
   10.8872    0.2979    0.0000 H   0  0  0  0  0  0  0  0  0  0  0  0
    2.0000   -0.9290    0.0000 H   0  0  0  0  0  0  0  0  0  0  0  0
    2.5369   -1.8590    0.0000 H   0  0  0  0  0  0  0  0  0  0  0  0
  1 11  1  0  0  0  0
  1 15  1  0  0  0  0
  2  3  1  0  0  0  0
  2  4  1  0  0  0  0
  2  5  1  0  0  0  0
  2  6  2  0  0  0  0
  3  9  1  0  0  0  0
  4 10  1  0  0  0  0
  5 12  1  0  0  0  0
  7  8  1  0  0  0  0
  7 13  1  0  0  0  0
  8 32  1  0  0  0  0
  8 33  1  0  0  0  0
  9 11  1  0  0  0  0
  9 16  1  0  0  0  0
  9 17  1  0  0  0  0
 10 13  1  0  0  0  0
 10 18  1  0  0  0  0
 10 19  1  0  0  0  0
 11 20  1  0  0  0  0
 11 21  1  0  0  0  0
 12 14  1  0  0  0  0
 12 22  1  0  0  0  0
 12 23  1  0  0  0  0
 13 24  1  0  0  0  0
 13 25  1  0  0  0  0
 14 26  1  0  0  0  0
 14 27  1  0  0  0  0
 14 28  1  0  0  0  0
 15 29  1  0  0  0  0
 15 30  1  0  0  0  0
 15 31  1  0  0  0  0
M  END
> <PUBCHEM_COMPOUND_CID>
135039491

> <PUBCHEM_COMPOUND_CANONICALIZED>
1

> <PUBCHEM_CACTVS_COMPLEXITY>
194

> <PUBCHEM_CACTVS_HBOND_ACCEPTOR>
7

> <PUBCHEM_CACTVS_HBOND_DONOR>
1

> <PUBCHEM_CACTVS_ROTATABLE_BOND>
10

> <PUBCHEM_CACTVS_SUBSKEYS>
AAADceBiOAJAAAAAAAAAAAAAAAAAAAAAAAAAAAAAAAAAAAAAAAAAGgQUACAAAACkwAKCAAAAARgAQAAAAIAAAAAAABAAAAAAAAABAAAAAAAAAAAAAAAAAAAAAAAAAAAAAAAAAAAAAAAAAAAAAAAAAAAAAA==

> <PUBCHEM_IUPAC_OPENEYE_NAME>
2-aminooxyethyl ethyl 2-methylsulfanylethyl phosphate

> <PUBCHEM_IUPAC_CAS_NAME>
phosphoric acid 2-aminooxyethyl ethyl 2-(methylthio)ethyl ester

> <PUBCHEM_IUPAC_NAME_MARKUP>
2-aminooxyethyl ethyl 2-methylsulfanylethyl phosphate

> <PUBCHEM_IUPAC_NAME>
2-aminooxyethyl ethyl 2-methylsulfanylethyl phosphate

> <PUBCHEM_IUPAC_SYSTEMATIC_NAME>
2-azanyloxyethyl ethyl 2-methylsulfanylethyl phosphate

> <PUBCHEM_IUPAC_TRADITIONAL_NAME>
phosphoric acid 2-aminooxyethyl ethyl 2-(methylthio)ethyl ester

> <PUBCHEM_IUPAC_INCHI>
InChI=1S/C7H18NO5PS/c1-3-11-14(9,12-5-4-10-8)13-6-7-15-2/h3-8H2,1-2H3

> <PUBCHEM_IUPAC_INCHIKEY>
ZZTLYBYEBGABRE-UHFFFAOYSA-N

> <PUBCHEM_XLOGP3_AA>
-0.4

> <PUBCHEM_EXACT_MASS>
259.06433085

> <PUBCHEM_MOLECULAR_FORMULA>
C7H18NO5PS

> <PUBCHEM_MOLECULAR_WEIGHT>
259.26

> <PUBCHEM_OPENEYE_CAN_SMILES>
CCOP(=O)(OCCON)OCCSC

> <PUBCHEM_OPENEYE_ISO_SMILES>
CCOP(=O)(OCCON)OCCSC

> <PUBCHEM_CACTVS_TPSA>
105

> <PUBCHEM_MONOISOTOPIC_WEIGHT>
259.06433085

> <PUBCHEM_TOTAL_CHARGE>
0

> <PUBCHEM_HEAVY_ATOM_COUNT>
15

> <PUBCHEM_ATOM_DEF_STEREO_COUNT>
0

> <PUBCHEM_ATOM_UDEF_STEREO_COUNT>
1

> <PUBCHEM_BOND_DEF_STEREO_COUNT>
0

> <PUBCHEM_BOND_UDEF_STEREO_COUNT>
0

> <PUBCHEM_ISOTOPIC_ATOM_COUNT>
0

> <PUBCHEM_COMPONENT_COUNT>
1

> <PUBCHEM_CACTVS_TAUTO_COUNT>
-1

> <PUBCHEM_COORDINATE_TYPE>
1
5
255

> <PUBCHEM_BONDANNOTATIONS>
2  5  3

$$$$
