 
  -OEChem-10192103442D

 94 99  0     1  0  0  0  0  0999 V2000
   10.6060    1.5508    0.0000 S   0  0  0  0  0  0  0  0  0  0  0  0
    9.6060    3.2829    0.0000 S   0  0  0  0  0  0  0  0  0  0  0  0
    2.3100   -0.8901    0.0000 O   0  0  0  0  0  0  0  0  0  0  0  0
    3.8100   -0.0241    0.0000 O   0  0  0  0  0  0  0  0  0  0  0  0
    6.0421   -2.6221    0.0000 O   0  0  0  0  0  0  0  0  0  0  0  0
    8.1794   -2.3314    0.0000 O   0  0  0  0  0  0  0  0  0  0  0  0
    9.6060   -0.1812    0.0000 O   0  0  0  0  0  0  0  0  0  0  0  0
    9.3641   -5.0846    0.0000 O   0  0  0  0  0  0  0  0  0  0  0  0
    8.9500   -3.4028    0.0000 O   0  0  0  0  0  0  0  0  0  0  0  0
    4.6760   -1.2561    0.0000 N   0  0  0  0  0  0  0  0  0  0  0  0
    7.2741   -1.7561    0.0000 N   0  0  0  0  0  0  0  0  0  0  0  0
    8.1060    0.6848    0.0000 N   0  0  0  0  0  0  0  0  0  0  0  0
    7.7005   -4.6023    0.0000 N   0  0  0  0  0  0  0  0  0  0  0  0
    7.6060    1.5508    0.0000 N   0  0  0  0  0  0  0  0  0  0  0  0
   12.1060    2.4168    0.0000 N   0  0  0  0  0  0  0  0  0  0  0  0
   10.6060    3.2829    0.0000 N   0  0  0  0  0  0  0  0  0  0  0  0
    9.6060    5.0149    0.0000 N   0  0  0  0  0  0  0  0  0  0  0  0
    8.1060    4.1489    0.0000 N   0  0  0  0  0  0  0  0  0  0  0  0
    3.8100   -1.7561    0.0000 C   0  0  1  0  0  0  0  0  0  0  0  0
    3.8100   -2.7561    0.0000 C   0  0  3  0  0  0  0  0  0  0  0  0
    2.9435   -2.2561    0.0000 C   0  0  0  0  0  0  0  0  0  0  0  0
    4.6760   -3.2561    0.0000 C   0  0  0  0  0  0  0  0  0  0  0  0
    3.3100   -0.8901    0.0000 C   0  0  0  0  0  0  0  0  0  0  0  0
    6.4081   -1.2561    0.0000 C   0  0  2  0  0  0  0  0  0  0  0  0
    5.5420   -1.7561    0.0000 C   0  0  0  0  0  0  0  0  0  0  0  0
    6.6173   -0.2843    0.0000 C   0  0  0  0  0  0  0  0  0  0  0  0
    7.6060   -0.1812    0.0000 C   0  0  2  0  0  0  0  0  0  0  0  0
    8.0111   -1.0890    0.0000 C   0  0  0  0  0  0  0  0  0  0  0  0
    4.6760   -4.2561    0.0000 C   0  0  0  0  0  0  0  0  0  0  0  0
    7.2741   -2.7561    0.0000 C   0  0  0  0  0  0  0  0  0  0  0  0
    3.8100   -4.7561    0.0000 C   0  0  0  0  0  0  0  0  0  0  0  0
    7.0080   -3.8810    0.0000 C   0  0  2  0  0  0  0  0  0  0  0  0
    4.3100   -5.6221    0.0000 C   0  0  0  0  0  0  0  0  0  0  0  0
    6.1419   -4.3810    0.0000 C   0  0  0  0  0  0  0  0  0  0  0  0
    5.2759   -5.8810    0.0000 C   0  0  0  0  0  0  0  0  0  0  0  0
    6.1419   -5.3810    0.0000 C   0  0  0  0  0  0  0  0  0  0  0  0
    9.1060    0.6848    0.0000 C   0  0  0  0  0  0  0  0  0  0  0  0
    9.6060    1.5508    0.0000 C   0  0  0  0  0  0  0  0  0  0  0  0
    8.1060    2.4168    0.0000 C   0  0  0  0  0  0  0  0  0  0  0  0
    9.1060    2.4168    0.0000 C   0  0  0  0  0  0  0  0  0  0  0  0
    8.6715   -4.3632    0.0000 C   0  0  0  0  0  0  0  0  0  0  0  0
   10.3351   -4.8455    0.0000 C   0  0  0  0  0  0  0  0  0  0  0  0
   11.1060    2.4168    0.0000 C   0  0  0  0  0  0  0  0  0  0  0  0
   11.3061   -4.6064    0.0000 C   0  0  0  0  0  0  0  0  0  0  0  0
   10.5742   -5.8165    0.0000 C   0  0  0  0  0  0  0  0  0  0  0  0
   10.0960   -3.8745    0.0000 C   0  0  0  0  0  0  0  0  0  0  0  0
    9.1060    4.1489    0.0000 C   0  0  0  0  0  0  0  0  0  0  0  0
   12.6060    3.2829    0.0000 C   0  0  0  0  0  0  0  0  0  0  0  0
   11.1060    4.1489    0.0000 C   0  0  0  0  0  0  0  0  0  0  0  0
   12.1060    4.1489    0.0000 C   0  0  0  0  0  0  0  0  0  0  0  0
    9.1060    5.8810    0.0000 C   0  0  0  0  0  0  0  0  0  0  0  0
    7.6060    5.0149    0.0000 C   0  0  0  0  0  0  0  0  0  0  0  0
    8.1060    5.8810    0.0000 C   0  0  0  0  0  0  0  0  0  0  0  0
    3.5001   -3.2931    0.0000 H   0  0  0  0  0  0  0  0  0  0  0  0
    2.5450   -1.7811    0.0000 H   0  0  0  0  0  0  0  0  0  0  0  0
    2.5450   -2.7311    0.0000 H   0  0  0  0  0  0  0  0  0  0  0  0
    4.6760   -0.6361    0.0000 H   0  0  0  0  0  0  0  0  0  0  0  0
    5.2960   -3.2561    0.0000 H   0  0  0  0  0  0  0  0  0  0  0  0
    5.7211   -0.7556    0.0000 H   0  0  0  0  0  0  0  0  0  0  0  0
    6.6182    0.3357    0.0000 H   0  0  0  0  0  0  0  0  0  0  0  0
    6.0008   -0.2182    0.0000 H   0  0  0  0  0  0  0  0  0  0  0  0
    7.2686    0.3389    0.0000 H   0  0  0  0  0  0  0  0  0  0  0  0
    8.3766   -1.5899    0.0000 H   0  0  0  0  0  0  0  0  0  0  0  0
    8.5476   -0.7782    0.0000 H   0  0  0  0  0  0  0  0  0  0  0  0
    5.2130   -4.5661    0.0000 H   0  0  0  0  0  0  0  0  0  0  0  0
    3.5000   -4.2192    0.0000 H   0  0  0  0  0  0  0  0  0  0  0  0
    3.2731   -5.0661    0.0000 H   0  0  0  0  0  0  0  0  0  0  0  0
    2.0000   -0.3531    0.0000 H   0  0  0  0  0  0  0  0  0  0  0  0
    7.6061   -3.7178    0.0000 H   0  0  0  0  0  0  0  0  0  0  0  0
    3.7111   -5.7826    0.0000 H   0  0  0  0  0  0  0  0  0  0  0  0
    4.3100   -6.2421    0.0000 H   0  0  0  0  0  0  0  0  0  0  0  0
    5.9299   -3.7983    0.0000 H   0  0  0  0  0  0  0  0  0  0  0  0
    5.5314   -4.4886    0.0000 H   0  0  0  0  0  0  0  0  0  0  0  0
    4.9659   -6.4179    0.0000 H   0  0  0  0  0  0  0  0  0  0  0  0
    5.7143   -6.3194    0.0000 H   0  0  0  0  0  0  0  0  0  0  0  0
    6.3540   -5.9636    0.0000 H   0  0  0  0  0  0  0  0  0  0  0  0
    6.7525   -5.2733    0.0000 H   0  0  0  0  0  0  0  0  0  0  0  0
    7.5279   -5.1978    0.0000 H   0  0  0  0  0  0  0  0  0  0  0  0
    7.7960    2.9538    0.0000 H   0  0  0  0  0  0  0  0  0  0  0  0
   11.4543   -5.2084    0.0000 H   0  0  0  0  0  0  0  0  0  0  0  0
   11.9081   -4.4581    0.0000 H   0  0  0  0  0  0  0  0  0  0  0  0
   11.1578   -4.0044    0.0000 H   0  0  0  0  0  0  0  0  0  0  0  0
    9.9722   -5.9647    0.0000 H   0  0  0  0  0  0  0  0  0  0  0  0
   10.7224   -6.4185    0.0000 H   0  0  0  0  0  0  0  0  0  0  0  0
   11.1762   -5.6682    0.0000 H   0  0  0  0  0  0  0  0  0  0  0  0
   10.6980   -3.7262    0.0000 H   0  0  0  0  0  0  0  0  0  0  0  0
    9.9477   -3.2725    0.0000 H   0  0  0  0  0  0  0  0  0  0  0  0
    9.4940   -4.0227    0.0000 H   0  0  0  0  0  0  0  0  0  0  0  0
   13.2260    3.2829    0.0000 H   0  0  0  0  0  0  0  0  0  0  0  0
   10.7960    4.6858    0.0000 H   0  0  0  0  0  0  0  0  0  0  0  0
   12.4160    4.6858    0.0000 H   0  0  0  0  0  0  0  0  0  0  0  0
    9.4160    6.4179    0.0000 H   0  0  0  0  0  0  0  0  0  0  0  0
    6.9860    5.0149    0.0000 H   0  0  0  0  0  0  0  0  0  0  0  0
    7.7960    6.4179    0.0000 H   0  0  0  0  0  0  0  0  0  0  0  0
  1 38  1  0  0  0  0
  1 43  1  0  0  0  0
  2 40  1  0  0  0  0
  2 47  1  0  0  0  0
  3 23  1  0  0  0  0
  3 68  1  0  0  0  0
  4 23  2  0  0  0  0
  5 25  2  0  0  0  0
  6 30  2  0  0  0  0
  7 37  2  0  0  0  0
  8 41  1  0  0  0  0
  8 42  1  0  0  0  0
  9 41  2  0  0  0  0
 10 19  1  0  0  0  0
 10 25  1  0  0  0  0
 10 57  1  0  0  0  0
 11 24  1  0  0  0  0
 11 28  1  0  0  0  0
 11 30  1  0  0  0  0
 12 14  1  0  0  0  0
 27 12  1  1  0  0  0
 12 37  1  0  0  0  0
 32 13  1  1  0  0  0
 13 41  1  0  0  0  0
 13 78  1  0  0  0  0
 14 39  2  0  0  0  0
 15 43  2  0  0  0  0
 15 48  1  0  0  0  0
 16 43  1  0  0  0  0
 16 49  2  0  0  0  0
 17 47  2  0  0  0  0
 17 51  1  0  0  0  0
 18 47  1  0  0  0  0
 18 52  2  0  0  0  0
 19 20  1  0  0  0  0
 19 21  1  0  0  0  0
 19 23  1  6  0  0  0
 20 21  1  0  0  0  0
 20 22  1  0  0  0  0
 20 54  1  0  0  0  0
 21 55  1  0  0  0  0
 21 56  1  0  0  0  0
 22 29  2  0  0  0  0
 22 58  1  0  0  0  0
 24 25  1  0  0  0  0
 24 26  1  0  0  0  0
 24 59  1  1  0  0  0
 26 27  1  0  0  0  0
 26 60  1  0  0  0  0
 26 61  1  0  0  0  0
 27 28  1  0  0  0  0
 27 62  1  0  0  0  0
 28 63  1  0  0  0  0
 28 64  1  0  0  0  0
 29 31  1  0  0  0  0
 29 65  1  0  0  0  0
 30 32  1  0  0  0  0
 31 33  1  0  0  0  0
 31 66  1  0  0  0  0
 31 67  1  0  0  0  0
 32 34  1  0  0  0  0
 32 69  1  0  0  0  0
 33 35  1  0  0  0  0
 33 70  1  0  0  0  0
 33 71  1  0  0  0  0
 34 36  1  0  0  0  0
 34 72  1  0  0  0  0
 34 73  1  0  0  0  0
 35 36  1  0  0  0  0
 35 74  1  0  0  0  0
 35 75  1  0  0  0  0
 36 76  1  0  0  0  0
 36 77  1  0  0  0  0
 37 38  1  0  0  0  0
 38 40  2  0  0  0  0
 39 40  1  0  0  0  0
 39 79  1  0  0  0  0
 42 44  1  0  0  0  0
 42 45  1  0  0  0  0
 42 46  1  0  0  0  0
 44 80  1  0  0  0  0
 44 81  1  0  0  0  0
 44 82  1  0  0  0  0
 45 83  1  0  0  0  0
 45 84  1  0  0  0  0
 45 85  1  0  0  0  0
 46 86  1  0  0  0  0
 46 87  1  0  0  0  0
 46 88  1  0  0  0  0
 48 50  2  0  0  0  0
 48 89  1  0  0  0  0
 49 50  1  0  0  0  0
 49 90  1  0  0  0  0
 50 91  1  0  0  0  0
 51 53  2  0  0  0  0
 51 92  1  0  0  0  0
 52 53  1  0  0  0  0
 52 93  1  0  0  0  0
 53 94  1  0  0  0  0
M  END
> <PUBCHEM_COMPOUND_CID>
60112565

> <PUBCHEM_COMPOUND_CANONICALIZED>
1

> <PUBCHEM_CACTVS_COMPLEXITY>
1510

> <PUBCHEM_CACTVS_HBOND_ACCEPTOR>
14

> <PUBCHEM_CACTVS_HBOND_DONOR>
3

> <PUBCHEM_CACTVS_ROTATABLE_BOND>
9

> <PUBCHEM_CACTVS_SUBSKEYS>
AAADcfB/+ABgAAAAAAAAAAAAGAAAAWAAAAAsWIAAAAAAAAAB4AAAHgQYCAAADezB0gQ/mJfIFgioADH3fACQ0ClxArAbWKG4ZFmCSJJAyWAcRAgMngLYASOciYCIAAAAAAAAAAAAAAAAAAAAAAAAAAAAAA==

> <PUBCHEM_IUPAC_OPENEYE_NAME>
(1S,4R,7Z,14S,18R)-14-(tert-butoxycarbonylamino)-2,15-dioxo-18-[6-oxo-4,5-bis(pyrimidin-2-ylsulfanyl)pyridazin-1-yl]-3,16-diazatricyclo[14.3.0.04,6]nonadec-7-ene-4-carboxylic acid

> <PUBCHEM_IUPAC_CAS_NAME>
(1S,4R,7Z,14S,18R)-14-[[(2-methylpropan-2-yl)oxy-oxomethyl]amino]-2,15-dioxo-18-[6-oxo-4,5-bis(2-pyrimidinylthio)-1-pyridazinyl]-3,16-diazatricyclo[14.3.0.04,6]nonadec-7-ene-4-carboxylic acid

> <PUBCHEM_IUPAC_NAME_MARKUP>
(1<I>S</I>,4<I>R</I>,7<I>Z</I>,14<I>S</I>,18<I>R</I>)-14-[(2-methylpropan-2-yl)oxycarbonylamino]-2,15-dioxo-18-[6-oxo-4,5-bis(pyrimidin-2-ylsulfanyl)pyridazin-1-yl]-3,16-diazatricyclo[14.3.0.0<SUP>4,6</SUP>]nonadec-7-ene-4-carboxylic acid

> <PUBCHEM_IUPAC_NAME>
(1S,4R,7Z,14S,18R)-14-[(2-methylpropan-2-yl)oxycarbonylamino]-2,15-dioxo-18-[6-oxo-4,5-bis(pyrimidin-2-ylsulfanyl)pyridazin-1-yl]-3,16-diazatricyclo[14.3.0.04,6]nonadec-7-ene-4-carboxylic acid

> <PUBCHEM_IUPAC_SYSTEMATIC_NAME>
(1S,4R,7Z,14S,18R)-14-[(2-methylpropan-2-yl)oxycarbonylamino]-2,15-bis(oxidanylidene)-18-[6-oxidanylidene-4,5-bis(pyrimidin-2-ylsulfanyl)pyridazin-1-yl]-3,16-diazatricyclo[14.3.0.04,6]nonadec-7-ene-4-carboxylic acid

> <PUBCHEM_IUPAC_TRADITIONAL_NAME>
(1S,4R,7Z,14S,18R)-14-(tert-butoxycarbonylamino)-2,15-diketo-18-[6-keto-4,5-bis(2-pyrimidylthio)pyridazin-1-yl]-3,16-diazatricyclo[14.3.0.04,6]nonadec-7-ene-4-carboxylic acid

> <PUBCHEM_IUPAC_INCHI>
InChI=1S/C35H41N9O7S2/c1-34(2,3)51-33(50)41-23-12-8-6-4-5-7-11-21-18-35(21,30(48)49)42-27(45)24-17-22(20-43(24)28(23)46)44-29(47)26(53-32-38-15-10-16-39-32)25(19-40-44)52-31-36-13-9-14-37-31/h7,9-11,13-16,19,21-24H,4-6,8,12,17-18,20H2,1-3H3,(H,41,50)(H,42,45)(H,48,49)/b11-7-/t21?,22-,23+,24+,35-/m1/s1

> <PUBCHEM_IUPAC_INCHIKEY>
YQZMNPZMZKWSEZ-UNHXRNQWSA-N

> <PUBCHEM_XLOGP3_AA>
3.4

> <PUBCHEM_EXACT_MASS>
763.25703703

> <PUBCHEM_MOLECULAR_FORMULA>
C35H41N9O7S2

> <PUBCHEM_MOLECULAR_WEIGHT>
763.9

> <PUBCHEM_OPENEYE_CAN_SMILES>
CC(C)(C)OC(=O)NC1CCCCCC=CC2CC2(NC(=O)C3CC(CN3C1=O)N4C(=O)C(=C(C=N4)SC5=NC=CC=N5)SC6=NC=CC=N6)C(=O)O

> <PUBCHEM_OPENEYE_ISO_SMILES>
CC(C)(C)OC(=O)N[C@H]1CCCCC/C=C\C2C[C@]2(NC(=O)[C@@H]3C[C@H](CN3C1=O)N4C(=O)C(=C(C=N4)SC5=NC=CC=N5)SC6=NC=CC=N6)C(=O)O

> <PUBCHEM_CACTVS_TPSA>
260

> <PUBCHEM_MONOISOTOPIC_WEIGHT>
763.25703703

> <PUBCHEM_TOTAL_CHARGE>
0

> <PUBCHEM_HEAVY_ATOM_COUNT>
53

> <PUBCHEM_ATOM_DEF_STEREO_COUNT>
4

> <PUBCHEM_ATOM_UDEF_STEREO_COUNT>
1

> <PUBCHEM_BOND_DEF_STEREO_COUNT>
1

> <PUBCHEM_BOND_UDEF_STEREO_COUNT>
0

> <PUBCHEM_ISOTOPIC_ATOM_COUNT>
0

> <PUBCHEM_COMPONENT_COUNT>
1

> <PUBCHEM_CACTVS_TAUTO_COUNT>
-1

> <PUBCHEM_COORDINATE_TYPE>
1
5
255

> <PUBCHEM_BONDANNOTATIONS>
12  14  8
27  12  5
12  37  8
32  13  5
14  39  8
15  43  8
15  48  8
16  43  8
16  49  8
17  47  8
17  51  8
18  47  8
18  52  8
19  23  6
20  21  3
24  59  5
37  38  8
38  40  8
39  40  8
48  50  8
49  50  8
51  53  8
52  53  8

$$$$
