 
  -OEChem-10192104012D

 63 64  0     1  0  0  0  0  0999 V2000
    8.9702    1.2993    0.0000 P   0  0  0  0  0  0  0  0  0  0  0  0
    7.6811    0.1425    0.0000 O   0  0  0  0  0  0  0  0  0  0  0  0
    8.0197    1.6099    0.0000 O   0  0  0  0  0  0  0  0  0  0  0  0
   11.5486    3.6127    0.0000 O   0  0  0  0  0  0  0  0  0  0  0  0
   11.2837   -1.2791    0.0000 O   0  0  0  0  0  0  0  0  0  0  0  0
    9.9022    4.1508    0.0000 O   0  0  0  0  0  0  0  0  0  0  0  0
   11.8218    0.3673    0.0000 O   0  0  0  0  0  0  0  0  0  0  0  0
    4.2690   -4.7695    0.0000 O   0  0  0  0  0  0  0  0  0  0  0  0
    9.2809    2.2498    0.0000 N   0  0  0  0  0  0  0  0  0  0  0  0
    9.9208    0.9886    0.0000 N   0  0  0  0  0  0  0  0  0  0  0  0
    6.0812   -1.9647    0.0000 N   0  0  0  0  0  0  0  0  0  0  0  0
    6.0812   -3.5742    0.0000 N   0  0  0  0  0  0  0  0  0  0  0  0
    4.2690   -1.7695    0.0000 N   0  0  0  0  0  0  0  0  0  0  0  0
    3.4030   -3.2695    0.0000 N   0  0  0  0  0  0  0  0  0  0  0  0
    2.5369   -1.7695    0.0000 N   0  0  0  0  0  0  0  0  0  0  0  0
    8.6596    0.3487    0.0000 C   0  0  0  0  0  0  0  0  0  0  0  0
   10.2594    2.4560    0.0000 C   0  0  1  0  0  0  0  0  0  0  0  0
   10.1270    0.0101    0.0000 C   0  0  1  0  0  0  0  0  0  0  0  0
    7.3704   -0.8080    0.0000 C   0  0  0  0  0  0  0  0  0  0  0  0
    6.3919   -1.0142    0.0000 C   0  0  0  0  0  0  0  0  0  0  0  0
   10.9272    1.7117    0.0000 C   0  0  0  0  0  0  0  0  0  0  0  0
    9.3827   -0.6578    0.0000 C   0  0  0  0  0  0  0  0  0  0  0  0
   10.5701    3.4065    0.0000 C   0  0  0  0  0  0  0  0  0  0  0  0
   11.0775   -0.3006    0.0000 C   0  0  0  0  0  0  0  0  0  0  0  0
    5.1350   -2.2695    0.0000 C   0  0  0  0  0  0  0  0  0  0  0  0
    5.1350   -3.2695    0.0000 C   0  0  0  0  0  0  0  0  0  0  0  0
    6.6648   -2.7695    0.0000 C   0  0  0  0  0  0  0  0  0  0  0  0
    4.2690   -3.7695    0.0000 C   0  0  0  0  0  0  0  0  0  0  0  0
   11.8592    4.5633    0.0000 C   0  0  0  0  0  0  0  0  0  0  0  0
   12.2342   -1.5897    0.0000 C   0  0  0  0  0  0  0  0  0  0  0  0
    3.4030   -2.2695    0.0000 C   0  0  0  0  0  0  0  0  0  0  0  0
   12.8377    4.7695    0.0000 C   0  0  0  0  0  0  0  0  0  0  0  0
   12.4404   -2.5682    0.0000 C   0  0  0  0  0  0  0  0  0  0  0  0
    8.6801   -0.2709    0.0000 H   0  0  0  0  0  0  0  0  0  0  0  0
    9.2734    0.2614    0.0000 H   0  0  0  0  0  0  0  0  0  0  0  0
    8.8668    2.7112    0.0000 H   0  0  0  0  0  0  0  0  0  0  0  0
   10.3822    1.4027    0.0000 H   0  0  0  0  0  0  0  0  0  0  0  0
   10.0668    1.8667    0.0000 H   0  0  0  0  0  0  0  0  0  0  0  0
   10.5884    0.4242    0.0000 H   0  0  0  0  0  0  0  0  0  0  0  0
    7.3910   -1.4277    0.0000 H   0  0  0  0  0  0  0  0  0  0  0  0
    7.9842   -0.8954    0.0000 H   0  0  0  0  0  0  0  0  0  0  0  0
    6.3713   -0.3946    0.0000 H   0  0  0  0  0  0  0  0  0  0  0  0
    5.7781   -0.9269    0.0000 H   0  0  0  0  0  0  0  0  0  0  0  0
   10.4658    1.2976    0.0000 H   0  0  0  0  0  0  0  0  0  0  0  0
   11.3413    1.2502    0.0000 H   0  0  0  0  0  0  0  0  0  0  0  0
   11.3887    2.1258    0.0000 H   0  0  0  0  0  0  0  0  0  0  0  0
    8.9686   -0.1963    0.0000 H   0  0  0  0  0  0  0  0  0  0  0  0
    8.9212   -1.0718    0.0000 H   0  0  0  0  0  0  0  0  0  0  0  0
    9.7967   -1.1192    0.0000 H   0  0  0  0  0  0  0  0  0  0  0  0
    7.2848   -2.7695    0.0000 H   0  0  0  0  0  0  0  0  0  0  0  0
   11.8387    5.1829    0.0000 H   0  0  0  0  0  0  0  0  0  0  0  0
   11.2454    4.6506    0.0000 H   0  0  0  0  0  0  0  0  0  0  0  0
   12.8539   -1.5692    0.0000 H   0  0  0  0  0  0  0  0  0  0  0  0
   12.3216   -0.9759    0.0000 H   0  0  0  0  0  0  0  0  0  0  0  0
    2.8660   -3.5795    0.0000 H   0  0  0  0  0  0  0  0  0  0  0  0
   12.9656    4.1628    0.0000 H   0  0  0  0  0  0  0  0  0  0  0  0
   13.4444    4.8973    0.0000 H   0  0  0  0  0  0  0  0  0  0  0  0
   12.7099    5.3762    0.0000 H   0  0  0  0  0  0  0  0  0  0  0  0
   11.8338   -2.6961    0.0000 H   0  0  0  0  0  0  0  0  0  0  0  0
   12.5683   -3.1749    0.0000 H   0  0  0  0  0  0  0  0  0  0  0  0
   13.0471   -2.4404    0.0000 H   0  0  0  0  0  0  0  0  0  0  0  0
    2.5369   -1.1495    0.0000 H   0  0  0  0  0  0  0  0  0  0  0  0
    2.0000   -2.0795    0.0000 H   0  0  0  0  0  0  0  0  0  0  0  0
  1  3  2  0  0  0  0
  1  9  1  0  0  0  0
  1 10  1  0  0  0  0
  1 16  1  0  0  0  0
  2 16  1  0  0  0  0
  2 19  1  0  0  0  0
  4 23  1  0  0  0  0
  4 29  1  0  0  0  0
  5 24  1  0  0  0  0
  5 30  1  0  0  0  0
  6 23  2  0  0  0  0
  7 24  2  0  0  0  0
  8 28  2  0  0  0  0
 17  9  1  6  0  0  0
  9 36  1  0  0  0  0
 18 10  1  6  0  0  0
 10 37  1  0  0  0  0
 11 20  1  0  0  0  0
 11 25  1  0  0  0  0
 11 27  1  0  0  0  0
 12 26  1  0  0  0  0
 12 27  2  0  0  0  0
 13 25  1  0  0  0  0
 13 31  2  0  0  0  0
 14 28  1  0  0  0  0
 14 31  1  0  0  0  0
 14 55  1  0  0  0  0
 15 31  1  0  0  0  0
 15 62  1  0  0  0  0
 15 63  1  0  0  0  0
 16 34  1  0  0  0  0
 16 35  1  0  0  0  0
 17 21  1  0  0  0  0
 17 23  1  0  0  0  0
 17 38  1  0  0  0  0
 18 22  1  0  0  0  0
 18 24  1  0  0  0  0
 18 39  1  0  0  0  0
 19 20  1  0  0  0  0
 19 40  1  0  0  0  0
 19 41  1  0  0  0  0
 20 42  1  0  0  0  0
 20 43  1  0  0  0  0
 21 44  1  0  0  0  0
 21 45  1  0  0  0  0
 21 46  1  0  0  0  0
 22 47  1  0  0  0  0
 22 48  1  0  0  0  0
 22 49  1  0  0  0  0
 25 26  2  0  0  0  0
 26 28  1  0  0  0  0
 27 50  1  0  0  0  0
 29 32  1  0  0  0  0
 29 51  1  0  0  0  0
 29 52  1  0  0  0  0
 30 33  1  0  0  0  0
 30 53  1  0  0  0  0
 30 54  1  0  0  0  0
 32 56  1  0  0  0  0
 32 57  1  0  0  0  0
 32 58  1  0  0  0  0
 33 59  1  0  0  0  0
 33 60  1  0  0  0  0
 33 61  1  0  0  0  0
M  END
> <PUBCHEM_COMPOUND_CID>
136025939

> <PUBCHEM_COMPOUND_CANONICALIZED>
1

> <PUBCHEM_CACTVS_COMPLEXITY>
766

> <PUBCHEM_CACTVS_HBOND_ACCEPTOR>
11

> <PUBCHEM_CACTVS_HBOND_DONOR>
4

> <PUBCHEM_CACTVS_ROTATABLE_BOND>
15

> <PUBCHEM_CACTVS_SUBSKEYS>
AAADceB7uAIAAAAAAAAAAAAAAAAAAWAAAAAgAAAAAAAAAEABgAAAHggQgCAACCjhlgYHuBfMFACoQQfxfACAgC0XEKABUIGoVECCSAhASCAXAIgIEQLQAGAAAAAAAAAAAAAAAAAAAAAAAAAAAAAAAAAAAA==

> <PUBCHEM_IUPAC_OPENEYE_NAME>
ethyl (2S)-2-[[2-(2-amino-6-oxo-1H-purin-9-yl)ethoxymethyl-[[(1S)-2-ethoxy-1-methyl-2-oxo-ethyl]amino]phosphoryl]amino]propanoate

> <PUBCHEM_IUPAC_CAS_NAME>
(2S)-2-[[2-(2-amino-6-oxo-1H-purin-9-yl)ethoxymethyl-[[(2S)-1-ethoxy-1-oxopropan-2-yl]amino]phosphoryl]amino]propanoic acid ethyl ester

> <PUBCHEM_IUPAC_NAME_MARKUP>
ethyl (2<I>S</I>)-2-[[2-(2-amino-6-oxo-1<I>H</I>-purin-9-yl)ethoxymethyl-[[(2<I>S</I>)-1-ethoxy-1-oxopropan-2-yl]amino]phosphoryl]amino]propanoate

> <PUBCHEM_IUPAC_NAME>
ethyl (2S)-2-[[2-(2-amino-6-oxo-1H-purin-9-yl)ethoxymethyl-[[(2S)-1-ethoxy-1-oxopropan-2-yl]amino]phosphoryl]amino]propanoate

> <PUBCHEM_IUPAC_SYSTEMATIC_NAME>
ethyl (2S)-2-[[2-(2-azanyl-6-oxidanylidene-1H-purin-9-yl)ethoxymethyl-[[(2S)-1-ethoxy-1-oxidanylidene-propan-2-yl]amino]phosphoryl]amino]propanoate

> <PUBCHEM_IUPAC_TRADITIONAL_NAME>
(2S)-2-[[2-(2-amino-6-keto-1H-purin-9-yl)ethoxymethyl-[[(1S)-2-ethoxy-2-keto-1-methyl-ethyl]amino]phosphoryl]amino]propionic acid ethyl ester

> <PUBCHEM_IUPAC_INCHI>
InChI=1S/C18H30N7O7P/c1-5-31-16(27)11(3)23-33(29,24-12(4)17(28)32-6-2)10-30-8-7-25-9-20-13-14(25)21-18(19)22-15(13)26/h9,11-12H,5-8,10H2,1-4H3,(H2,23,24,29)(H3,19,21,22,26)/t11-,12-/m0/s1

> <PUBCHEM_IUPAC_INCHIKEY>
DCZKBWMXTADYLP-RYUDHWBXSA-N

> <PUBCHEM_XLOGP3_AA>
-1.2

> <PUBCHEM_EXACT_MASS>
487.19443332

> <PUBCHEM_MOLECULAR_FORMULA>
C18H30N7O7P

> <PUBCHEM_MOLECULAR_WEIGHT>
487.4

> <PUBCHEM_OPENEYE_CAN_SMILES>
CCOC(=O)C(C)NP(=O)(COCCN1C=NC2=C1N=C(NC2=O)N)NC(C)C(=O)OCC

> <PUBCHEM_OPENEYE_ISO_SMILES>
CCOC(=O)[C@H](C)NP(=O)(COCCN1C=NC2=C1N=C(NC2=O)N)N[C@@H](C)C(=O)OCC

> <PUBCHEM_CACTVS_TPSA>
188

> <PUBCHEM_MONOISOTOPIC_WEIGHT>
487.19443332

> <PUBCHEM_TOTAL_CHARGE>
0

> <PUBCHEM_HEAVY_ATOM_COUNT>
33

> <PUBCHEM_ATOM_DEF_STEREO_COUNT>
2

> <PUBCHEM_ATOM_UDEF_STEREO_COUNT>
0

> <PUBCHEM_BOND_DEF_STEREO_COUNT>
0

> <PUBCHEM_BOND_UDEF_STEREO_COUNT>
0

> <PUBCHEM_ISOTOPIC_ATOM_COUNT>
0

> <PUBCHEM_COMPONENT_COUNT>
1

> <PUBCHEM_CACTVS_TAUTO_COUNT>
-1

> <PUBCHEM_COORDINATE_TYPE>
1
5
255

> <PUBCHEM_BONDANNOTATIONS>
18  10  6
11  25  8
11  27  8
12  26  8
12  27  8
13  25  8
13  31  8
14  28  8
14  31  8
25  26  8
26  28  8
17  9  6

$$$$
