 
  -OEChem-10192104312D

 51 51  0     0  0  0  0  0  0999 V2000
    5.9490   -3.3171    0.0000 O   0  0  0  0  0  0  0  0  0  0  0  0
    6.5414   -1.6895    0.0000 O   0  0  0  0  0  0  0  0  0  0  0  0
    9.2890    3.3171    0.0000 O   0  0  0  0  0  0  0  0  0  0  0  0
    9.8814    1.6895    0.0000 O   0  0  0  0  0  0  0  0  0  0  0  0
    4.8356   -1.9902    0.0000 C   0  0  0  0  0  0  0  0  0  0  0  0
    4.4936   -2.9299    0.0000 C   0  0  0  0  0  0  0  0  0  0  0  0
    4.4936   -1.0506    0.0000 C   0  0  0  0  0  0  0  0  0  0  0  0
    5.7753   -1.6482    0.0000 C   0  0  0  0  0  0  0  0  0  0  0  0
    3.6276   -3.4299    0.0000 C   0  0  0  0  0  0  0  0  0  0  0  0
    3.6276   -0.5505    0.0000 C   0  0  0  0  0  0  0  0  0  0  0  0
    5.9490   -0.6634    0.0000 C   0  0  0  0  0  0  0  0  0  0  0  0
    2.6428   -3.2563    0.0000 C   0  0  0  0  0  0  0  0  0  0  0  0
    2.6428   -0.7242    0.0000 C   0  0  0  0  0  0  0  0  0  0  0  0
    2.0000   -2.4902    0.0000 C   0  0  0  0  0  0  0  0  0  0  0  0
    2.0000   -1.4902    0.0000 C   0  0  0  0  0  0  0  0  0  0  0  0
    5.7753   -2.3323    0.0000 C   0  0  0  0  0  0  0  0  0  0  0  0
    6.8887   -0.3214    0.0000 C   0  0  0  0  0  0  0  0  0  0  0  0
    7.0623    0.6634    0.0000 C   0  0  0  0  0  0  0  0  0  0  0  0
    8.0020    1.0054    0.0000 C   0  0  0  0  0  0  0  0  0  0  0  0
    8.1757    1.9902    0.0000 C   0  0  0  0  0  0  0  0  0  0  0  0
    9.1154    2.3323    0.0000 C   0  0  0  0  0  0  0  0  0  0  0  0
    4.6366   -3.5332    0.0000 H   0  0  0  0  0  0  0  0  0  0  0  0
    5.1126   -2.9660    0.0000 H   0  0  0  0  0  0  0  0  0  0  0  0
    5.1126   -1.0145    0.0000 H   0  0  0  0  0  0  0  0  0  0  0  0
    4.6366   -0.4473    0.0000 H   0  0  0  0  0  0  0  0  0  0  0  0
    5.8830   -2.2588    0.0000 H   0  0  0  0  0  0  0  0  0  0  0  0
    6.3953   -1.6482    0.0000 H   0  0  0  0  0  0  0  0  0  0  0  0
    3.3493   -3.9840    0.0000 H   0  0  0  0  0  0  0  0  0  0  0  0
    4.0786   -3.8554    0.0000 H   0  0  0  0  0  0  0  0  0  0  0  0
    4.0786   -0.1251    0.0000 H   0  0  0  0  0  0  0  0  0  0  0  0
    3.3493    0.0035    0.0000 H   0  0  0  0  0  0  0  0  0  0  0  0
    5.8413   -0.0528    0.0000 H   0  0  0  0  0  0  0  0  0  0  0  0
    5.3290   -0.6634    0.0000 H   0  0  0  0  0  0  0  0  0  0  0  0
    2.0735   -3.5019    0.0000 H   0  0  0  0  0  0  0  0  0  0  0  0
    2.7148   -3.8721    0.0000 H   0  0  0  0  0  0  0  0  0  0  0  0
    2.7148   -0.1084    0.0000 H   0  0  0  0  0  0  0  0  0  0  0  0
    2.0735   -0.4786    0.0000 H   0  0  0  0  0  0  0  0  0  0  0  0
    1.4060   -2.3124    0.0000 H   0  0  0  0  0  0  0  0  0  0  0  0
    1.6593   -3.0082    0.0000 H   0  0  0  0  0  0  0  0  0  0  0  0
    1.6593   -0.9722    0.0000 H   0  0  0  0  0  0  0  0  0  0  0  0
    1.4060   -1.6681    0.0000 H   0  0  0  0  0  0  0  0  0  0  0  0
    6.9963   -0.9320    0.0000 H   0  0  0  0  0  0  0  0  0  0  0  0
    7.5087   -0.3214    0.0000 H   0  0  0  0  0  0  0  0  0  0  0  0
    6.9547    1.2740    0.0000 H   0  0  0  0  0  0  0  0  0  0  0  0
    6.4423    0.6634    0.0000 H   0  0  0  0  0  0  0  0  0  0  0  0
    8.1097    0.3949    0.0000 H   0  0  0  0  0  0  0  0  0  0  0  0
    8.6220    1.0054    0.0000 H   0  0  0  0  0  0  0  0  0  0  0  0
    6.5316   -3.5291    0.0000 H   0  0  0  0  0  0  0  0  0  0  0  0
    8.0680    2.6008    0.0000 H   0  0  0  0  0  0  0  0  0  0  0  0
    7.5557    1.9902    0.0000 H   0  0  0  0  0  0  0  0  0  0  0  0
    9.8716    3.5291    0.0000 H   0  0  0  0  0  0  0  0  0  0  0  0
  1 16  1  0  0  0  0
  1 48  1  0  0  0  0
  2 16  2  0  0  0  0
  3 21  1  0  0  0  0
  3 51  1  0  0  0  0
  4 21  2  0  0  0  0
  5  6  1  0  0  0  0
  5  7  1  0  0  0  0
  5  8  1  0  0  0  0
  5 16  1  0  0  0  0
  6  9  1  0  0  0  0
  6 22  1  0  0  0  0
  6 23  1  0  0  0  0
  7 10  1  0  0  0  0
  7 24  1  0  0  0  0
  7 25  1  0  0  0  0
  8 11  1  0  0  0  0
  8 26  1  0  0  0  0
  8 27  1  0  0  0  0
  9 12  1  0  0  0  0
  9 28  1  0  0  0  0
  9 29  1  0  0  0  0
 10 13  1  0  0  0  0
 10 30  1  0  0  0  0
 10 31  1  0  0  0  0
 11 17  1  0  0  0  0
 11 32  1  0  0  0  0
 11 33  1  0  0  0  0
 12 14  1  0  0  0  0
 12 34  1  0  0  0  0
 12 35  1  0  0  0  0
 13 15  1  0  0  0  0
 13 36  1  0  0  0  0
 13 37  1  0  0  0  0
 14 15  1  0  0  0  0
 14 38  1  0  0  0  0
 14 39  1  0  0  0  0
 15 40  1  0  0  0  0
 15 41  1  0  0  0  0
 17 18  1  0  0  0  0
 17 42  1  0  0  0  0
 17 43  1  0  0  0  0
 18 19  1  0  0  0  0
 18 44  1  0  0  0  0
 18 45  1  0  0  0  0
 19 20  1  0  0  0  0
 19 46  1  0  0  0  0
 19 47  1  0  0  0  0
 20 21  1  0  0  0  0
 20 49  1  0  0  0  0
 20 50  1  0  0  0  0
M  END
> <PUBCHEM_COMPOUND_CID>
66633188

> <PUBCHEM_COMPOUND_CANONICALIZED>
1

> <PUBCHEM_CACTVS_COMPLEXITY>
315

> <PUBCHEM_CACTVS_HBOND_ACCEPTOR>
4

> <PUBCHEM_CACTVS_HBOND_DONOR>
2

> <PUBCHEM_CACTVS_ROTATABLE_BOND>
8

> <PUBCHEM_CACTVS_SUBSKEYS>
AAADceB4OAAAAAAAAAAAAAAAAAAAAAAAAAAAAAAAAAAAAGAAAAAAGgAACAAADgCAgAAACAAAAgAIAACQCAAAAAAAAAAAAAEAAAAAABIAAAAAQAAEAAAAAAGIyOCPAAAAAAAAAAAAAAAAAAAAAAAAAAAAAA==

> <PUBCHEM_IUPAC_OPENEYE_NAME>
1-(6-carboxyhexyl)cyclononanecarboxylic acid

> <PUBCHEM_IUPAC_CAS_NAME>
1-(6-carboxyhexyl)-1-cyclononanecarboxylic acid

> <PUBCHEM_IUPAC_NAME_MARKUP>
1-(6-carboxyhexyl)cyclononane-1-carboxylic acid

> <PUBCHEM_IUPAC_NAME>
1-(6-carboxyhexyl)cyclononane-1-carboxylic acid

> <PUBCHEM_IUPAC_SYSTEMATIC_NAME>
1-(7-oxidanyl-7-oxidanylidene-heptyl)cyclononane-1-carboxylic acid

> <PUBCHEM_IUPAC_TRADITIONAL_NAME>
1-(6-carboxyhexyl)cyclononanecarboxylic acid

> <PUBCHEM_IUPAC_INCHI>
InChI=1S/C17H30O4/c18-15(19)11-7-3-6-10-14-17(16(20)21)12-8-4-1-2-5-9-13-17/h1-14H2,(H,18,19)(H,20,21)

> <PUBCHEM_IUPAC_INCHIKEY>
WKJKWDCWJJOCCY-UHFFFAOYSA-N

> <PUBCHEM_XLOGP3_AA>
5.2

> <PUBCHEM_EXACT_MASS>
298.21440943

> <PUBCHEM_MOLECULAR_FORMULA>
C17H30O4

> <PUBCHEM_MOLECULAR_WEIGHT>
298.4

> <PUBCHEM_OPENEYE_CAN_SMILES>
C1CCCCC(CCC1)(CCCCCCC(=O)O)C(=O)O

> <PUBCHEM_OPENEYE_ISO_SMILES>
C1CCCCC(CCC1)(CCCCCCC(=O)O)C(=O)O

> <PUBCHEM_CACTVS_TPSA>
74.6

> <PUBCHEM_MONOISOTOPIC_WEIGHT>
298.21440943

> <PUBCHEM_TOTAL_CHARGE>
0

> <PUBCHEM_HEAVY_ATOM_COUNT>
21

> <PUBCHEM_ATOM_DEF_STEREO_COUNT>
0

> <PUBCHEM_ATOM_UDEF_STEREO_COUNT>
0

> <PUBCHEM_BOND_DEF_STEREO_COUNT>
0

> <PUBCHEM_BOND_UDEF_STEREO_COUNT>
0

> <PUBCHEM_ISOTOPIC_ATOM_COUNT>
0

> <PUBCHEM_COMPONENT_COUNT>
1

> <PUBCHEM_CACTVS_TAUTO_COUNT>
-1

> <PUBCHEM_COORDINATE_TYPE>
1
5
255

$$$$
