 
  -OEChem-10192104142D

 37 37  0     1  0  0  0  0  0999 V2000
    3.0000   -0.7500    0.0000 S   0  0  0  0  0  0  0  0  0  0  0  0
    3.0000    0.2500    0.0000 O   0  0  0  0  0  0  0  0  0  0  0  0
    4.0000   -0.7500    0.0000 O   0  0  0  0  0  0  0  0  0  0  0  0
    2.0000   -0.7500    0.0000 O   0  0  0  0  0  0  0  0  0  0  0  0
    3.8660    1.7500    0.0000 C   0  0  0  0  0  0  0  0  0  0  0  0
    4.7320    2.2500    0.0000 C   0  0  0  0  0  0  0  0  0  0  0  0
    3.8660    0.7500    0.0000 C   0  0  2  0  0  0  0  0  0  0  0  0
    4.7320    3.2500    0.0000 C   0  0  0  0  0  0  0  0  0  0  0  0
    3.0000   -1.7500    0.0000 C   0  0  0  0  0  0  0  0  0  0  0  0
    2.1340   -2.2500    0.0000 C   0  0  0  0  0  0  0  0  0  0  0  0
    3.8660   -2.2500    0.0000 C   0  0  0  0  0  0  0  0  0  0  0  0
    5.5981    3.7500    0.0000 C   0  0  0  0  0  0  0  0  0  0  0  0
    3.0000   -3.7500    0.0000 C   0  0  0  0  0  0  0  0  0  0  0  0
    4.7320    0.2500    0.0000 C   0  0  0  0  0  0  0  0  0  0  0  0
    2.1340   -3.2500    0.0000 C   0  0  0  0  0  0  0  0  0  0  0  0
    3.8660   -3.2500    0.0000 C   0  0  0  0  0  0  0  0  0  0  0  0
    3.0000   -4.7500    0.0000 C   0  0  0  0  0  0  0  0  0  0  0  0
    5.5981    4.7500    0.0000 C   0  0  0  0  0  0  0  0  0  0  0  0
    5.5981   -0.2500    0.0000 C   0  0  0  0  0  0  0  0  0  0  0  0
    3.6540    2.3326    0.0000 H   0  0  0  0  0  0  0  0  0  0  0  0
    3.2554    1.6423    0.0000 H   0  0  0  0  0  0  0  0  0  0  0  0
    4.9441    1.6674    0.0000 H   0  0  0  0  0  0  0  0  0  0  0  0
    5.3426    2.3577    0.0000 H   0  0  0  0  0  0  0  0  0  0  0  0
    3.8660    0.1300    0.0000 H   0  0  0  0  0  0  0  0  0  0  0  0
    4.5200    3.8326    0.0000 H   0  0  0  0  0  0  0  0  0  0  0  0
    4.1215    3.1423    0.0000 H   0  0  0  0  0  0  0  0  0  0  0  0
    1.5970   -1.9400    0.0000 H   0  0  0  0  0  0  0  0  0  0  0  0
    4.4030   -1.9400    0.0000 H   0  0  0  0  0  0  0  0  0  0  0  0
    6.1350    3.4400    0.0000 H   0  0  0  0  0  0  0  0  0  0  0  0
    1.5970   -3.5600    0.0000 H   0  0  0  0  0  0  0  0  0  0  0  0
    4.4030   -3.5600    0.0000 H   0  0  0  0  0  0  0  0  0  0  0  0
    2.3800   -4.7500    0.0000 H   0  0  0  0  0  0  0  0  0  0  0  0
    3.0000   -5.3700    0.0000 H   0  0  0  0  0  0  0  0  0  0  0  0
    3.6200   -4.7500    0.0000 H   0  0  0  0  0  0  0  0  0  0  0  0
    6.1350    5.0600    0.0000 H   0  0  0  0  0  0  0  0  0  0  0  0
    5.0611    5.0600    0.0000 H   0  0  0  0  0  0  0  0  0  0  0  0
    6.1350   -0.5600    0.0000 H   0  0  0  0  0  0  0  0  0  0  0  0
  1  2  1  0  0  0  0
  1  3  2  0  0  0  0
  1  4  2  0  0  0  0
  1  9  1  0  0  0  0
  7  2  1  6  0  0  0
  5  6  1  0  0  0  0
  5  7  1  0  0  0  0
  5 20  1  0  0  0  0
  5 21  1  0  0  0  0
  6  8  1  0  0  0  0
  6 22  1  0  0  0  0
  6 23  1  0  0  0  0
  7 14  1  0  0  0  0
  7 24  1  0  0  0  0
  8 12  1  0  0  0  0
  8 25  1  0  0  0  0
  8 26  1  0  0  0  0
  9 10  2  0  0  0  0
  9 11  1  0  0  0  0
 10 15  1  0  0  0  0
 10 27  1  0  0  0  0
 11 16  2  0  0  0  0
 11 28  1  0  0  0  0
 12 18  2  0  0  0  0
 12 29  1  0  0  0  0
 13 15  2  0  0  0  0
 13 16  1  0  0  0  0
 13 17  1  0  0  0  0
 14 19  3  0  0  0  0
 15 30  1  0  0  0  0
 16 31  1  0  0  0  0
 17 32  1  0  0  0  0
 17 33  1  0  0  0  0
 17 34  1  0  0  0  0
 18 35  1  0  0  0  0
 18 36  1  0  0  0  0
 19 37  1  0  0  0  0
M  END
> <PUBCHEM_COMPOUND_CID>
102600303

> <PUBCHEM_COMPOUND_CANONICALIZED>
1

> <PUBCHEM_CACTVS_COMPLEXITY>
416

> <PUBCHEM_CACTVS_HBOND_ACCEPTOR>
3

> <PUBCHEM_CACTVS_HBOND_DONOR>
0

> <PUBCHEM_CACTVS_ROTATABLE_BOND>
7

> <PUBCHEM_CACTVS_SUBSKEYS>
AAADceBwMABAAAAAAAAAAAAAAAAAAAAAAAAwAAAAAAAAAAABAAAAGgQAAAAADBSg2AIyAYAAAALAGiBCAHhCAEAgAAAIiBgAAIgIICKAERCAIAAkgAAIiAeAgAAOEAAAAAAAAAAgAAAAAAAAAAAAAAAAAA==

> <PUBCHEM_IUPAC_OPENEYE_NAME>
[(1R)-1-ethynylhex-5-enyl] 4-methylbenzenesulfonate

> <PUBCHEM_IUPAC_CAS_NAME>
4-methylbenzenesulfonic acid [(3R)-oct-7-en-1-yn-3-yl] ester

> <PUBCHEM_IUPAC_NAME_MARKUP>
[(3<I>R</I>)-oct-7-en-1-yn-3-yl] 4-methylbenzenesulfonate

> <PUBCHEM_IUPAC_NAME>
[(3R)-oct-7-en-1-yn-3-yl] 4-methylbenzenesulfonate

> <PUBCHEM_IUPAC_SYSTEMATIC_NAME>
[(3R)-oct-7-en-1-yn-3-yl] 4-methylbenzenesulfonate

> <PUBCHEM_IUPAC_TRADITIONAL_NAME>
4-methylbenzenesulfonic acid [(1R)-1-ethynylhex-5-enyl] ester

> <PUBCHEM_IUPAC_INCHI>
InChI=1S/C15H18O3S/c1-4-6-7-8-14(5-2)18-19(16,17)15-11-9-13(3)10-12-15/h2,4,9-12,14H,1,6-8H2,3H3/t14-/m0/s1

> <PUBCHEM_IUPAC_INCHIKEY>
MKBAXGSTSZKCQU-AWEZNQCLSA-N

> <PUBCHEM_XLOGP3_AA>
3.5

> <PUBCHEM_EXACT_MASS>
278.09766561

> <PUBCHEM_MOLECULAR_FORMULA>
C15H18O3S

> <PUBCHEM_MOLECULAR_WEIGHT>
278.4

> <PUBCHEM_OPENEYE_CAN_SMILES>
CC1=CC=C(C=C1)S(=O)(=O)OC(CCCC=C)C#C

> <PUBCHEM_OPENEYE_ISO_SMILES>
CC1=CC=C(C=C1)S(=O)(=O)O[C@H](CCCC=C)C#C

> <PUBCHEM_CACTVS_TPSA>
51.8

> <PUBCHEM_MONOISOTOPIC_WEIGHT>
278.09766561

> <PUBCHEM_TOTAL_CHARGE>
0

> <PUBCHEM_HEAVY_ATOM_COUNT>
19

> <PUBCHEM_ATOM_DEF_STEREO_COUNT>
1

> <PUBCHEM_ATOM_UDEF_STEREO_COUNT>
0

> <PUBCHEM_BOND_DEF_STEREO_COUNT>
0

> <PUBCHEM_BOND_UDEF_STEREO_COUNT>
0

> <PUBCHEM_ISOTOPIC_ATOM_COUNT>
0

> <PUBCHEM_COMPONENT_COUNT>
1

> <PUBCHEM_CACTVS_TAUTO_COUNT>
-1

> <PUBCHEM_COORDINATE_TYPE>
1
5
255

> <PUBCHEM_BONDANNOTATIONS>
10  15  8
11  16  8
13  15  8
13  16  8
7  2  6
9  10  8
9  11  8

$$$$
