 
  -OEChem-10192103522D

 18 18  0     0  0  0  0  0  0999 V2000
    2.5369    0.9050    0.0000 O   0  0  0  0  0  0  0  0  0  0  0  0
    4.2690   -2.0950    0.0000 O   0  0  0  0  0  0  0  0  0  0  0  0
    6.8671   -0.5950    0.0000 O   0  0  0  0  0  0  0  0  0  0  0  0
    5.1350    2.4050    0.0000 O   0  0  0  0  0  0  0  0  0  0  0  0
    5.1350   -0.5950    0.0000 C   0  0  0  0  0  0  0  0  0  0  0  0
    4.2690    0.9050    0.0000 C   0  0  0  0  0  0  0  0  0  0  0  0
    5.1350    0.4050    0.0000 C   0  0  0  0  0  0  0  0  0  0  0  0
    3.4030    0.4050    0.0000 C   0  0  0  0  0  0  0  0  0  0  0  0
    4.2690   -1.0950    0.0000 C   0  0  0  0  0  0  0  0  0  0  0  0
    3.4030   -0.5950    0.0000 C   0  0  0  0  0  0  0  0  0  0  0  0
    6.0010   -1.0950    0.0000 C   0  0  0  0  0  0  0  0  0  0  0  0
    4.2690    1.9050    0.0000 C   0  0  0  0  0  0  0  0  0  0  0  0
    5.6720    0.7150    0.0000 H   0  0  0  0  0  0  0  0  0  0  0  0
    2.8660   -0.9050    0.0000 H   0  0  0  0  0  0  0  0  0  0  0  0
    6.0010   -1.7150    0.0000 H   0  0  0  0  0  0  0  0  0  0  0  0
    3.7320    2.2150    0.0000 H   0  0  0  0  0  0  0  0  0  0  0  0
    2.0000    0.5950    0.0000 H   0  0  0  0  0  0  0  0  0  0  0  0
    3.7320   -2.4050    0.0000 H   0  0  0  0  0  0  0  0  0  0  0  0
  1  8  1  0  0  0  0
  1 17  1  0  0  0  0
  2  9  1  0  0  0  0
  2 18  1  0  0  0  0
  3 11  2  0  0  0  0
  4 12  2  0  0  0  0
  5  7  2  0  0  0  0
  5  9  1  0  0  0  0
  5 11  1  0  0  0  0
  6  7  1  0  0  0  0
  6  8  2  0  0  0  0
  6 12  1  0  0  0  0
  7 13  1  0  0  0  0
  8 10  1  0  0  0  0
  9 10  2  0  0  0  0
 10 14  1  0  0  0  0
 11 15  1  0  0  0  0
 12 16  1  0  0  0  0
M  END
> <PUBCHEM_COMPOUND_CID>
2748026

> <PUBCHEM_COMPOUND_CANONICALIZED>
1

> <PUBCHEM_CACTVS_COMPLEXITY>
162

> <PUBCHEM_CACTVS_HBOND_ACCEPTOR>
4

> <PUBCHEM_CACTVS_HBOND_DONOR>
2

> <PUBCHEM_CACTVS_ROTATABLE_BOND>
2

> <PUBCHEM_CACTVS_SUBSKEYS>
AAADcYBwOAAAAAAAAAAAAAAAAAAAAAAAAAAwAAAAAAAAAAABAAAAGgAACAAADASgmAIwBoAAAgCIAihSgAACAAAkIAAAiAEGCMgIJzaCFRKAcUAl4BUImYeI7mTOIAACCAAIAABAAAQQABAAAAAAAAAAAA==

> <PUBCHEM_IUPAC_OPENEYE_NAME>
4,6-dihydroxybenzene-1,3-dicarbaldehyde

> <PUBCHEM_IUPAC_CAS_NAME>
4,6-dihydroxybenzene-1,3-dicarboxaldehyde

> <PUBCHEM_IUPAC_NAME_MARKUP>
4,6-dihydroxybenzene-1,3-dicarbaldehyde

> <PUBCHEM_IUPAC_NAME>
4,6-dihydroxybenzene-1,3-dicarbaldehyde

> <PUBCHEM_IUPAC_SYSTEMATIC_NAME>
4,6-bis(oxidanyl)benzene-1,3-dicarbaldehyde

> <PUBCHEM_IUPAC_TRADITIONAL_NAME>
4,6-dihydroxyisophthalaldehyde

> <PUBCHEM_IUPAC_INCHI>
InChI=1S/C8H6O4/c9-3-5-1-6(4-10)8(12)2-7(5)11/h1-4,11-12H

> <PUBCHEM_IUPAC_INCHIKEY>
QHRPBXABWLRILP-UHFFFAOYSA-N

> <PUBCHEM_XLOGP3_AA>
1.2

> <PUBCHEM_EXACT_MASS>
166.02660867

> <PUBCHEM_MOLECULAR_FORMULA>
C8H6O4

> <PUBCHEM_MOLECULAR_WEIGHT>
166.13

> <PUBCHEM_OPENEYE_CAN_SMILES>
C1=C(C(=CC(=C1C=O)O)O)C=O

> <PUBCHEM_OPENEYE_ISO_SMILES>
C1=C(C(=CC(=C1C=O)O)O)C=O

> <PUBCHEM_CACTVS_TPSA>
74.6

> <PUBCHEM_MONOISOTOPIC_WEIGHT>
166.02660867

> <PUBCHEM_TOTAL_CHARGE>
0

> <PUBCHEM_HEAVY_ATOM_COUNT>
12

> <PUBCHEM_ATOM_DEF_STEREO_COUNT>
0

> <PUBCHEM_ATOM_UDEF_STEREO_COUNT>
0

> <PUBCHEM_BOND_DEF_STEREO_COUNT>
0

> <PUBCHEM_BOND_UDEF_STEREO_COUNT>
0

> <PUBCHEM_ISOTOPIC_ATOM_COUNT>
0

> <PUBCHEM_COMPONENT_COUNT>
1

> <PUBCHEM_CACTVS_TAUTO_COUNT>
-1

> <PUBCHEM_COORDINATE_TYPE>
1
5
255

> <PUBCHEM_BONDANNOTATIONS>
5  7  8
5  9  8
6  7  8
6  8  8
8  10  8
9  10  8

$$$$
