 
  -OEChem-10192103332D

 97101  0     1  0  0  0  0  0999 V2000
    5.7363   -0.0696    0.0000 O   0  0  0  0  0  0  0  0  0  0  0  0
    6.3743   -3.0712    0.0000 O   0  0  0  0  0  0  0  0  0  0  0  0
   12.7120    4.0237    0.0000 O   0  0  0  0  0  0  0  0  0  0  0  0
   11.8460    1.5237    0.0000 O   0  0  0  0  0  0  0  0  0  0  0  0
   12.7120    1.0237    0.0000 O   0  0  0  0  0  0  0  0  0  0  0  0
   10.1139    1.5237    0.0000 O   0  0  0  0  0  0  0  0  0  0  0  0
   14.4441    3.0237    0.0000 O   0  0  0  0  0  0  0  0  0  0  0  0
   10.3372    3.7897    0.0000 O   0  0  0  0  0  0  0  0  0  0  0  0
   13.5780    1.5237    0.0000 O   0  0  0  0  0  0  0  0  0  0  0  0
   14.4441    4.0237    0.0000 O   0  0  0  0  0  0  0  0  0  0  0  0
   12.1468    5.2294    0.0000 O   0  0  0  0  0  0  0  0  0  0  0  0
   10.5192    4.6371    0.0000 O   0  0  0  0  0  0  0  0  0  0  0  0
   10.1139   -0.4763    0.0000 O   0  0  0  0  0  0  0  0  0  0  0  0
    8.3819    2.5237    0.0000 O   0  0  0  0  0  0  0  0  0  0  0  0
    8.7479    3.8897    0.0000 O   0  0  0  0  0  0  0  0  0  0  0  0
    2.0017   -2.6736    0.0000 O   0  0  0  0  0  0  0  0  0  0  0  0
    3.7390   -5.6706    0.0000 O   0  0  0  0  0  0  0  0  0  0  0  0
    2.0052   -4.6736    0.0000 O   0  0  0  0  0  0  0  0  0  0  0  0
    6.5453   -1.4708    0.0000 C   0  0  2  0  0  0  0  0  0  0  0  0
    5.5672   -1.6787    0.0000 C   0  0  2  0  0  0  0  0  0  0  0  0
    6.6498   -0.4763    0.0000 C   0  0  2  0  0  0  0  0  0  0  0  0
    5.4658   -2.6676    0.0000 C   0  0  2  0  0  0  0  0  0  0  0  0
    5.0672   -0.8127    0.0000 C   0  0  0  0  0  0  0  0  0  0  0  0
    7.0401   -2.3330    0.0000 C   0  0  0  0  0  0  0  0  0  0  0  0
   11.8460    2.5237    0.0000 C   0  0  1  0  0  0  0  0  0  0  0  0
   12.7120    2.0237    0.0000 C   0  0  1  0  0  0  0  0  0  0  0  0
    7.5159    0.0237    0.0000 C   0  0  0  0  0  0  0  0  0  0  0  0
   11.8460    3.5237    0.0000 C   0  0  1  0  0  0  0  0  0  0  0  0
   10.9800    3.0237    0.0000 C   0  0  1  0  0  0  0  0  0  0  0  0
    4.6007   -3.1691    0.0000 C   0  0  0  0  0  0  0  0  0  0  0  0
   13.5780    2.5237    0.0000 C   0  0  1  0  0  0  0  0  0  0  0  0
   13.5780    3.5237    0.0000 C   0  0  1  0  0  0  0  0  0  0  0  0
   10.1139    2.5237    0.0000 C   0  0  2  0  0  0  0  0  0  0  0  0
   11.5040    4.4634    0.0000 C   0  0  3  0  0  0  0  0  0  0  0  0
    7.5159    1.0237    0.0000 C   0  0  0  0  0  0  0  0  0  0  0  0
    8.3819   -0.4763    0.0000 C   0  0  0  0  0  0  0  0  0  0  0  0
    4.6024   -4.1691    0.0000 C   0  0  0  0  0  0  0  0  0  0  0  0
    3.7338   -2.6706    0.0000 C   0  0  0  0  0  0  0  0  0  0  0  0
    9.2479    1.0237    0.0000 C   0  0  0  0  0  0  0  0  0  0  0  0
    9.2479    3.0237    0.0000 C   0  0  0  0  0  0  0  0  0  0  0  0
    9.2479    0.0237    0.0000 C   0  0  0  0  0  0  0  0  0  0  0  0
    8.3819    1.5237    0.0000 C   0  0  0  0  0  0  0  0  0  0  0  0
    2.8686   -3.1721    0.0000 C   0  0  0  0  0  0  0  0  0  0  0  0
    3.7372   -4.6706    0.0000 C   0  0  0  0  0  0  0  0  0  0  0  0
    2.8704   -4.1721    0.0000 C   0  0  0  0  0  0  0  0  0  0  0  0
   15.3101    2.5237    0.0000 C   0  0  0  0  0  0  0  0  0  0  0  0
   11.8047    6.1691    0.0000 C   0  0  0  0  0  0  0  0  0  0  0  0
   10.1139   -1.4763    0.0000 C   0  0  0  0  0  0  0  0  0  0  0  0
    7.5159    3.0237    0.0000 C   0  0  0  0  0  0  0  0  0  0  0  0
    2.0000   -1.6736    0.0000 C   0  0  0  0  0  0  0  0  0  0  0  0
    4.6059   -6.1691    0.0000 C   0  0  0  0  0  0  0  0  0  0  0  0
    7.3770   -1.2952    0.0000 H   0  0  0  0  0  0  0  0  0  0  0  0
    4.7360   -1.8565    0.0000 H   0  0  0  0  0  0  0  0  0  0  0  0
    6.6174    0.1428    0.0000 H   0  0  0  0  0  0  0  0  0  0  0  0
    5.4991   -3.2867    0.0000 H   0  0  0  0  0  0  0  0  0  0  0  0
    4.6523   -0.3520    0.0000 H   0  0  0  0  0  0  0  0  0  0  0  0
    4.5656   -1.1771    0.0000 H   0  0  0  0  0  0  0  0  0  0  0  0
    7.4543   -2.7944    0.0000 H   0  0  0  0  0  0  0  0  0  0  0  0
    7.5424   -1.9696    0.0000 H   0  0  0  0  0  0  0  0  0  0  0  0
   13.2490    1.7137    0.0000 H   0  0  0  0  0  0  0  0  0  0  0  0
   12.0581    4.1063    0.0000 H   0  0  0  0  0  0  0  0  0  0  0  0
   11.3785    3.4986    0.0000 H   0  0  0  0  0  0  0  0  0  0  0  0
   13.5780    4.1437    0.0000 H   0  0  0  0  0  0  0  0  0  0  0  0
   10.6509    2.2137    0.0000 H   0  0  0  0  0  0  0  0  0  0  0  0
   11.1054    3.9885    0.0000 H   0  0  0  0  0  0  0  0  0  0  0  0
    6.9789    1.3337    0.0000 H   0  0  0  0  0  0  0  0  0  0  0  0
    8.3819   -1.0963    0.0000 H   0  0  0  0  0  0  0  0  0  0  0  0
   11.3091    1.2137    0.0000 H   0  0  0  0  0  0  0  0  0  0  0  0
    5.1399   -4.4782    0.0000 H   0  0  0  0  0  0  0  0  0  0  0  0
    3.7327   -2.0506    0.0000 H   0  0  0  0  0  0  0  0  0  0  0  0
    8.6373    2.9160    0.0000 H   0  0  0  0  0  0  0  0  0  0  0  0
    9.6863    3.4621    0.0000 H   0  0  0  0  0  0  0  0  0  0  0  0
   13.2490    0.7137    0.0000 H   0  0  0  0  0  0  0  0  0  0  0  0
    9.7546    4.0019    0.0000 H   0  0  0  0  0  0  0  0  0  0  0  0
   14.1150    1.2137    0.0000 H   0  0  0  0  0  0  0  0  0  0  0  0
   14.4441    4.6437    0.0000 H   0  0  0  0  0  0  0  0  0  0  0  0
   10.3071    5.2196    0.0000 H   0  0  0  0  0  0  0  0  0  0  0  0
   15.0001    1.9868    0.0000 H   0  0  0  0  0  0  0  0  0  0  0  0
   15.8470    2.2137    0.0000 H   0  0  0  0  0  0  0  0  0  0  0  0
   15.6201    3.0606    0.0000 H   0  0  0  0  0  0  0  0  0  0  0  0
    8.1279    3.8897    0.0000 H   0  0  0  0  0  0  0  0  0  0  0  0
   12.3874    6.3812    0.0000 H   0  0  0  0  0  0  0  0  0  0  0  0
   11.5927    6.7517    0.0000 H   0  0  0  0  0  0  0  0  0  0  0  0
   11.2221    5.9571    0.0000 H   0  0  0  0  0  0  0  0  0  0  0  0
    9.4940   -1.4763    0.0000 H   0  0  0  0  0  0  0  0  0  0  0  0
   10.1139   -2.0963    0.0000 H   0  0  0  0  0  0  0  0  0  0  0  0
   10.7339   -1.4763    0.0000 H   0  0  0  0  0  0  0  0  0  0  0  0
    7.8259    3.5606    0.0000 H   0  0  0  0  0  0  0  0  0  0  0  0
    6.9789    3.3337    0.0000 H   0  0  0  0  0  0  0  0  0  0  0  0
    7.2059    2.4868    0.0000 H   0  0  0  0  0  0  0  0  0  0  0  0
    2.0063   -5.2936    0.0000 H   0  0  0  0  0  0  0  0  0  0  0  0
    2.6200   -1.6726    0.0000 H   0  0  0  0  0  0  0  0  0  0  0  0
    1.9989   -1.0536    0.0000 H   0  0  0  0  0  0  0  0  0  0  0  0
    1.3800   -1.6747    0.0000 H   0  0  0  0  0  0  0  0  0  0  0  0
    4.2968   -6.7066    0.0000 H   0  0  0  0  0  0  0  0  0  0  0  0
    5.1433   -6.4782    0.0000 H   0  0  0  0  0  0  0  0  0  0  0  0
    4.9149   -5.6317    0.0000 H   0  0  0  0  0  0  0  0  0  0  0  0
  1 21  1  0  0  0  0
  1 23  1  0  0  0  0
  2 22  1  0  0  0  0
  2 24  1  0  0  0  0
  3 28  1  0  0  0  0
  3 32  1  0  0  0  0
 25  4  1  6  0  0  0
  4 68  1  0  0  0  0
 26  5  1  1  0  0  0
  5 73  1  0  0  0  0
 33  6  1  1  0  0  0
  6 39  1  0  0  0  0
  7 31  1  0  0  0  0
  7 46  1  0  0  0  0
 29  8  1  1  0  0  0
  8 74  1  0  0  0  0
 31  9  1  6  0  0  0
  9 75  1  0  0  0  0
 32 10  1  1  0  0  0
 10 76  1  0  0  0  0
 11 34  1  0  0  0  0
 11 47  1  0  0  0  0
 12 34  1  0  0  0  0
 12 77  1  0  0  0  0
 13 41  1  0  0  0  0
 13 48  1  0  0  0  0
 14 42  1  0  0  0  0
 14 49  1  0  0  0  0
 15 40  1  0  0  0  0
 15 81  1  0  0  0  0
 16 43  1  0  0  0  0
 16 50  1  0  0  0  0
 17 44  1  0  0  0  0
 17 51  1  0  0  0  0
 18 45  1  0  0  0  0
 18 91  1  0  0  0  0
 19 20  1  0  0  0  0
 19 21  1  0  0  0  0
 19 24  1  0  0  0  0
 19 52  1  1  0  0  0
 20 22  1  0  0  0  0
 20 23  1  0  0  0  0
 20 53  1  1  0  0  0
 21 27  1  1  0  0  0
 21 54  1  0  0  0  0
 22 30  1  1  0  0  0
 22 55  1  0  0  0  0
 23 56  1  0  0  0  0
 23 57  1  0  0  0  0
 24 58  1  0  0  0  0
 24 59  1  0  0  0  0
 25 26  1  0  0  0  0
 25 28  1  0  0  0  0
 25 29  1  0  0  0  0
 26 31  1  0  0  0  0
 26 60  1  0  0  0  0
 27 35  2  0  0  0  0
 27 36  1  0  0  0  0
 28 34  1  1  0  0  0
 28 61  1  0  0  0  0
 29 33  1  0  0  0  0
 29 62  1  0  0  0  0
 30 37  2  0  0  0  0
 30 38  1  0  0  0  0
 31 32  1  0  0  0  0
 32 63  1  0  0  0  0
 33 40  1  0  0  0  0
 33 64  1  0  0  0  0
 34 65  1  0  0  0  0
 35 42  1  0  0  0  0
 35 66  1  0  0  0  0
 36 41  2  0  0  0  0
 36 67  1  0  0  0  0
 37 44  1  0  0  0  0
 37 69  1  0  0  0  0
 38 43  2  0  0  0  0
 38 70  1  0  0  0  0
 39 41  1  0  0  0  0
 39 42  2  0  0  0  0
 40 71  1  0  0  0  0
 40 72  1  0  0  0  0
 43 45  1  0  0  0  0
 44 45  2  0  0  0  0
 46 78  1  0  0  0  0
 46 79  1  0  0  0  0
 46 80  1  0  0  0  0
 47 82  1  0  0  0  0
 47 83  1  0  0  0  0
 47 84  1  0  0  0  0
 48 85  1  0  0  0  0
 48 86  1  0  0  0  0
 48 87  1  0  0  0  0
 49 88  1  0  0  0  0
 49 89  1  0  0  0  0
 49 90  1  0  0  0  0
 50 92  1  0  0  0  0
 50 93  1  0  0  0  0
 50 94  1  0  0  0  0
 51 95  1  0  0  0  0
 51 96  1  0  0  0  0
 51 97  1  0  0  0  0
M  END
> <PUBCHEM_COMPOUND_CID>
102316627

> <PUBCHEM_COMPOUND_CANONICALIZED>
1

> <PUBCHEM_CACTVS_COMPLEXITY>
1080

> <PUBCHEM_CACTVS_HBOND_ACCEPTOR>
18

> <PUBCHEM_CACTVS_HBOND_DONOR>
8

> <PUBCHEM_CACTVS_ROTATABLE_BOND>
14

> <PUBCHEM_CACTVS_SUBSKEYS>
AAADcfB8PgAAAAAAAAAAAAAAAAAAASJAAAA0YIAAAAASAAABQAAAGgAACAAADVSwmAMyDoAABgCAAiBCAAACCAAgIAAAiAAGiIgdNyKGMRqCeCOlwBUPuAfA4PwOoAABCAAAQABAAAIQAACAAAAAAAAAAA==

> <PUBCHEM_IUPAC_OPENEYE_NAME>
(2R,3S,4S,5S,6S)-5-[(1R,2S)-2-[4-[(3R,3aS,6R,6aS)-3-(4-hydroxy-3,5-dimethoxy-phenyl)-1,3,3a,4,6,6a-hexahydrofuro[3,4-c]furan-6-yl]-2,6-dimethoxy-phenoxy]-1,3-dihydroxy-propyl]-6-[hydroxy(methoxy)methyl]-3-methoxy-tetrahydropyran-2,3,4,5-tetrol

> <PUBCHEM_IUPAC_CAS_NAME>
(2R,3S,4S,5S,6S)-5-[(1R,2S)-2-[4-[(3R,3aS,6R,6aS)-3-(4-hydroxy-3,5-dimethoxyphenyl)-1,3,3a,4,6,6a-hexahydrofuro[3,4-c]furan-6-yl]-2,6-dimethoxyphenoxy]-1,3-dihydroxypropyl]-6-[hydroxy(methoxy)methyl]-3-methoxyoxane-2,3,4,5-tetrol

> <PUBCHEM_IUPAC_NAME_MARKUP>
(2<I>R</I>,3<I>S</I>,4<I>S</I>,5<I>S</I>,6<I>S</I>)-5-[(1<I>R</I>,2<I>S</I>)-2-[4-[(3<I>R</I>,3<I>a</I><I>S</I>,6<I>R</I>,6<I>a</I><I>S</I>)-3-(4-hydroxy-3,5-dimethoxyphenyl)-1,3,3<I>a</I>,4,6,6<I>a</I>-hexahydrofuro[3,4-c]furan-6-yl]-2,6-dimethoxyphenoxy]-1,3-dihydroxypropyl]-6-[hydroxy(methoxy)methyl]-3-methoxyoxane-2,3,4,5-tetrol

> <PUBCHEM_IUPAC_NAME>
(2R,3S,4S,5S,6S)-5-[(1R,2S)-2-[4-[(3R,3aS,6R,6aS)-3-(4-hydroxy-3,5-dimethoxyphenyl)-1,3,3a,4,6,6a-hexahydrofuro[3,4-c]furan-6-yl]-2,6-dimethoxyphenoxy]-1,3-dihydroxypropyl]-6-[hydroxy(methoxy)methyl]-3-methoxyoxane-2,3,4,5-tetrol

> <PUBCHEM_IUPAC_SYSTEMATIC_NAME>
(2R,3S,4S,5S,6S)-5-[(1R,2S)-2-[4-[(3R,3aS,6R,6aS)-3-(3,5-dimethoxy-4-oxidanyl-phenyl)-1,3,3a,4,6,6a-hexahydrofuro[3,4-c]furan-6-yl]-2,6-dimethoxy-phenoxy]-1,3-bis(oxidanyl)propyl]-3-methoxy-6-[methoxy(oxidanyl)methyl]oxane-2,3,4,5-tetrol

> <PUBCHEM_IUPAC_TRADITIONAL_NAME>
(2R,3S,4S,5S,6S)-5-[(1R,2S)-2-[4-[(3R,3aS,6R,6aS)-3-(4-hydroxy-3,5-dimethoxy-phenyl)-1,3,3a,4,6,6a-hexahydrofuro[3,4-c]furan-6-yl]-2,6-dimethoxy-phenoxy]-1,3-dihydroxy-propyl]-6-[hydroxy(methoxy)methyl]-3-methoxy-tetrahydropyran-2,3,4,5-tetrol

> <PUBCHEM_IUPAC_INCHI>
InChI=1S/C33H46O18/c1-42-18-7-14(8-19(43-2)23(18)35)24-16-12-49-25(17(16)13-48-24)15-9-20(44-3)26(21(10-15)45-4)50-22(11-34)27(36)32(40)28(29(37)46-5)51-31(39)33(41,47-6)30(32)38/h7-10,16-17,22,24-25,27-31,34-41H,11-13H2,1-6H3/t16-,17-,22+,24+,25+,27-,28-,29?,30+,31-,32-,33+/m1/s1

> <PUBCHEM_IUPAC_INCHIKEY>
TUIMJJQNSXVOBL-SLAJDFSHSA-N

> <PUBCHEM_XLOGP3_AA>
-1.3

> <PUBCHEM_EXACT_MASS>
730.26841461

> <PUBCHEM_MOLECULAR_FORMULA>
C33H46O18

> <PUBCHEM_MOLECULAR_WEIGHT>
730.7

> <PUBCHEM_OPENEYE_CAN_SMILES>
COC1=CC(=CC(=C1O)OC)C2C3COC(C3CO2)C4=CC(=C(C(=C4)OC)OC(CO)C(C5(C(OC(C(C5O)(O)OC)O)C(O)OC)O)O)OC

> <PUBCHEM_OPENEYE_ISO_SMILES>
COC1=CC(=CC(=C1O)OC)[C@H]2[C@@H]3CO[C@H]([C@@H]3CO2)C4=CC(=C(C(=C4)OC)O[C@@H](CO)[C@H]([C@]5([C@H](O[C@H]([C@@]([C@H]5O)(O)OC)O)C(O)OC)O)O)OC

> <PUBCHEM_CACTVS_TPSA>
254

> <PUBCHEM_MONOISOTOPIC_WEIGHT>
730.26841461

> <PUBCHEM_TOTAL_CHARGE>
0

> <PUBCHEM_HEAVY_ATOM_COUNT>
51

> <PUBCHEM_ATOM_DEF_STEREO_COUNT>
11

> <PUBCHEM_ATOM_UDEF_STEREO_COUNT>
1

> <PUBCHEM_BOND_DEF_STEREO_COUNT>
0

> <PUBCHEM_BOND_UDEF_STEREO_COUNT>
0

> <PUBCHEM_ISOTOPIC_ATOM_COUNT>
0

> <PUBCHEM_COMPONENT_COUNT>
1

> <PUBCHEM_CACTVS_TAUTO_COUNT>
-1

> <PUBCHEM_COORDINATE_TYPE>
1
5
255

> <PUBCHEM_BONDANNOTATIONS>
32  10  5
34  12  3
19  52  5
20  53  5
21  27  5
22  30  5
27  35  8
27  36  8
28  34  5
30  37  8
30  38  8
35  42  8
36  41  8
37  44  8
38  43  8
39  41  8
39  42  8
25  4  6
43  45  8
44  45  8
26  5  5
33  6  5
29  8  5
31  9  6

$$$$
