 
  -OEChem-10192104152D

 18 17  0     0  0  0  0  0  0999 V2000
    3.7320   -0.3170    0.0000 S   0  0  0  0  0  0  0  0  0  0  0  0
    4.5981    0.1830    0.0000 P   0  3  0  0  0  0  0  0  0  0  0  0
    5.4641   -0.3170    0.0000 O   0  0  0  0  0  0  0  0  0  0  0  0
    3.2320    0.5490    0.0000 O   0  0  0  0  0  0  0  0  0  0  0  0
    4.2320   -1.1830    0.0000 O   0  0  0  0  0  0  0  0  0  0  0  0
    4.5981    1.1830    0.0000 O   0  0  0  0  0  0  0  0  0  0  0  0
    6.3301    0.1830    0.0000 C   0  0  0  0  0  0  0  0  0  0  0  0
    7.1962   -0.3170    0.0000 C   0  0  0  0  0  0  0  0  0  0  0  0
    2.8660   -0.8170    0.0000 C   0  0  0  0  0  0  0  0  0  0  0  0
    2.0000   -0.3170    0.0000 C   0  0  0  0  0  0  0  0  0  0  0  0
    6.7287    0.6580    0.0000 H   0  0  0  0  0  0  0  0  0  0  0  0
    5.9316    0.6580    0.0000 H   0  0  0  0  0  0  0  0  0  0  0  0
    6.8862   -0.8539    0.0000 H   0  0  0  0  0  0  0  0  0  0  0  0
    7.7331   -0.6270    0.0000 H   0  0  0  0  0  0  0  0  0  0  0  0
    7.5062    0.2199    0.0000 H   0  0  0  0  0  0  0  0  0  0  0  0
    2.8660   -1.4370    0.0000 H   0  0  0  0  0  0  0  0  0  0  0  0
    2.0000    0.3030    0.0000 H   0  0  0  0  0  0  0  0  0  0  0  0
    1.4631   -0.6270    0.0000 H   0  0  0  0  0  0  0  0  0  0  0  0
  1  2  1  0  0  0  0
  1  4  2  0  0  0  0
  1  5  2  0  0  0  0
  1  9  1  0  0  0  0
  2  3  1  0  0  0  0
  2  6  2  0  0  0  0
  3  7  1  0  0  0  0
  7  8  1  0  0  0  0
  7 11  1  0  0  0  0
  7 12  1  0  0  0  0
  8 13  1  0  0  0  0
  8 14  1  0  0  0  0
  8 15  1  0  0  0  0
  9 10  2  0  0  0  0
  9 16  1  0  0  0  0
 10 17  1  0  0  0  0
 10 18  1  0  0  0  0
M  CHG  1   2   1
M  END
> <PUBCHEM_COMPOUND_CID>
130463787

> <PUBCHEM_COMPOUND_CANONICALIZED>
1

> <PUBCHEM_CACTVS_COMPLEXITY>
224

> <PUBCHEM_CACTVS_HBOND_ACCEPTOR>
4

> <PUBCHEM_CACTVS_HBOND_DONOR>
0

> <PUBCHEM_CACTVS_ROTATABLE_BOND>
4

> <PUBCHEM_CACTVS_SUBSKEYS>
AAADccBgOAJAAAAAAAAAAAAAAAAAAAAAAAAAAAAAAAAAAAAAAAAAGgQAACAAAACkwAKCAAAAARKAQAACAPAAAAAAAAAIAAAAAAAAAAAAAAAAAAAAAAAAAAAAAAAAAAAAAAAAAAAAAAAAAAAAAAAAAAAAAA==

> <PUBCHEM_IUPAC_OPENEYE_NAME>
ethoxy-oxo-vinylsulfonyl-phosphonium

> <PUBCHEM_IUPAC_CAS_NAME>
ethenylsulfonyl-ethoxy-oxophosphonium

> <PUBCHEM_IUPAC_NAME_MARKUP>
ethenylsulfonyl-ethoxy-oxophosphanium

> <PUBCHEM_IUPAC_NAME>
ethenylsulfonyl-ethoxy-oxophosphanium

> <PUBCHEM_IUPAC_SYSTEMATIC_NAME>
ethenylsulfonyl-ethoxy-oxidanylidene-phosphanium

> <PUBCHEM_IUPAC_TRADITIONAL_NAME>
ethoxy-keto-vinylsulfonyl-phosphonium

> <PUBCHEM_IUPAC_INCHI>
InChI=1S/C4H8O4PS/c1-3-8-9(5)10(6,7)4-2/h4H,2-3H2,1H3/q+1

> <PUBCHEM_IUPAC_INCHIKEY>
DMHOKGRLOZZCMC-UHFFFAOYSA-N

> <PUBCHEM_XLOGP3_AA>
0.1

> <PUBCHEM_EXACT_MASS>
182.98809190

> <PUBCHEM_MOLECULAR_FORMULA>
C4H8O4PS+

> <PUBCHEM_MOLECULAR_WEIGHT>
183.15

> <PUBCHEM_OPENEYE_CAN_SMILES>
CCO[P+](=O)S(=O)(=O)C=C

> <PUBCHEM_OPENEYE_ISO_SMILES>
CCO[P+](=O)S(=O)(=O)C=C

> <PUBCHEM_CACTVS_TPSA>
68.8

> <PUBCHEM_MONOISOTOPIC_WEIGHT>
182.98809190

> <PUBCHEM_TOTAL_CHARGE>
1

> <PUBCHEM_HEAVY_ATOM_COUNT>
10

> <PUBCHEM_ATOM_DEF_STEREO_COUNT>
0

> <PUBCHEM_ATOM_UDEF_STEREO_COUNT>
0

> <PUBCHEM_BOND_DEF_STEREO_COUNT>
0

> <PUBCHEM_BOND_UDEF_STEREO_COUNT>
0

> <PUBCHEM_ISOTOPIC_ATOM_COUNT>
0

> <PUBCHEM_COMPONENT_COUNT>
1

> <PUBCHEM_CACTVS_TAUTO_COUNT>
-1

> <PUBCHEM_COORDINATE_TYPE>
1
5
255

$$$$
