 
  -OEChem-10192104072D

 30 30  0     1  0  0  0  0  0999 V2000
    4.2690   -1.2500    0.0000 O   0  0  0  0  0  0  0  0  0  0  0  0
    6.0010   -0.2500    0.0000 O   0  0  0  0  0  0  0  0  0  0  0  0
    2.5369    1.7500    0.0000 O   0  0  0  0  0  0  0  0  0  0  0  0
    2.5369   -3.2500    0.0000 O   0  0  0  0  0  0  0  0  0  0  0  0
    4.2690   -3.2500    0.0000 O   0  0  0  0  0  0  0  0  0  0  0  0
    5.1350    3.2500    0.0000 O   0  0  0  0  0  0  0  0  0  0  0  0
    3.4030    3.2500    0.0000 O   0  0  0  0  0  0  0  0  0  0  0  0
    4.2690   -0.2500    0.0000 C   0  0  0  0  0  0  0  0  0  0  0  0
    3.4030   -1.7500    0.0000 C   0  0  3  0  0  0  0  0  0  0  0  0
    5.1350    0.2500    0.0000 C   0  0  0  0  0  0  0  0  0  0  0  0
    3.4030    0.2500    0.0000 C   0  0  0  0  0  0  0  0  0  0  0  0
    4.2690    1.7500    0.0000 C   0  0  0  0  0  0  0  0  0  0  0  0
    5.1350    1.2500    0.0000 C   0  0  0  0  0  0  0  0  0  0  0  0
    3.4030    1.2500    0.0000 C   0  0  0  0  0  0  0  0  0  0  0  0
    2.5369   -1.2500    0.0000 C   0  0  0  0  0  0  0  0  0  0  0  0
    3.4030   -2.7500    0.0000 C   0  0  0  0  0  0  0  0  0  0  0  0
    4.2690    2.7500    0.0000 C   0  0  0  0  0  0  0  0  0  0  0  0
    6.8671    0.2500    0.0000 C   0  0  0  0  0  0  0  0  0  0  0  0
    3.4030   -1.1300    0.0000 H   0  0  0  0  0  0  0  0  0  0  0  0
    2.8660   -0.0600    0.0000 H   0  0  0  0  0  0  0  0  0  0  0  0
    5.6720    1.5600    0.0000 H   0  0  0  0  0  0  0  0  0  0  0  0
    2.8469   -0.7131    0.0000 H   0  0  0  0  0  0  0  0  0  0  0  0
    2.0000   -0.9400    0.0000 H   0  0  0  0  0  0  0  0  0  0  0  0
    2.2269   -1.7869    0.0000 H   0  0  0  0  0  0  0  0  0  0  0  0
    7.1771   -0.2869    0.0000 H   0  0  0  0  0  0  0  0  0  0  0  0
    7.4040    0.5600    0.0000 H   0  0  0  0  0  0  0  0  0  0  0  0
    6.5571    0.7869    0.0000 H   0  0  0  0  0  0  0  0  0  0  0  0
    2.0000    1.4400    0.0000 H   0  0  0  0  0  0  0  0  0  0  0  0
    2.5369   -3.8700    0.0000 H   0  0  0  0  0  0  0  0  0  0  0  0
    5.1350    3.8700    0.0000 H   0  0  0  0  0  0  0  0  0  0  0  0
  1  8  1  0  0  0  0
  1  9  1  0  0  0  0
  2 10  1  0  0  0  0
  2 18  1  0  0  0  0
  3 14  1  0  0  0  0
  3 28  1  0  0  0  0
  4 16  1  0  0  0  0
  4 29  1  0  0  0  0
  5 16  2  0  0  0  0
  6 17  1  0  0  0  0
  6 30  1  0  0  0  0
  7 17  2  0  0  0  0
  8 10  2  0  0  0  0
  8 11  1  0  0  0  0
  9 15  1  0  0  0  0
  9 16  1  0  0  0  0
  9 19  1  0  0  0  0
 10 13  1  0  0  0  0
 11 14  2  0  0  0  0
 11 20  1  0  0  0  0
 12 13  2  0  0  0  0
 12 14  1  0  0  0  0
 12 17  1  0  0  0  0
 13 21  1  0  0  0  0
 15 22  1  0  0  0  0
 15 23  1  0  0  0  0
 15 24  1  0  0  0  0
 18 25  1  0  0  0  0
 18 26  1  0  0  0  0
 18 27  1  0  0  0  0
M  END
> <PUBCHEM_COMPOUND_CID>
69621548

> <PUBCHEM_COMPOUND_CANONICALIZED>
1

> <PUBCHEM_CACTVS_COMPLEXITY>
317

> <PUBCHEM_CACTVS_HBOND_ACCEPTOR>
7

> <PUBCHEM_CACTVS_HBOND_DONOR>
3

> <PUBCHEM_CACTVS_ROTATABLE_BOND>
5

> <PUBCHEM_CACTVS_SUBSKEYS>
AAADccBwOAAAAAAAAAAAAAAAAAAAAAAAAAAwAAAAAAAAAAABAAAAGgAACAAADBSgmAIyDoAABgCIAiDSCAICCAAkIAAAiAFGiMgNJzaGNB6CeWKl4BULuYfK7DzOIQABCAAIQABCAAIQABCAAAAAAAAAAA==

> <PUBCHEM_IUPAC_OPENEYE_NAME>
4-(1-carboxyethoxy)-2-hydroxy-5-methoxy-benzoic acid

> <PUBCHEM_IUPAC_CAS_NAME>
4-(1-carboxyethoxy)-2-hydroxy-5-methoxybenzoic acid

> <PUBCHEM_IUPAC_NAME_MARKUP>
4-(1-carboxyethoxy)-2-hydroxy-5-methoxybenzoic acid

> <PUBCHEM_IUPAC_NAME>
4-(1-carboxyethoxy)-2-hydroxy-5-methoxybenzoic acid

> <PUBCHEM_IUPAC_SYSTEMATIC_NAME>
5-methoxy-2-oxidanyl-4-(1-oxidanyl-1-oxidanylidene-propan-2-yl)oxy-benzoic acid

> <PUBCHEM_IUPAC_TRADITIONAL_NAME>
4-(1-carboxyethoxy)-2-hydroxy-5-methoxy-benzoic acid

> <PUBCHEM_IUPAC_INCHI>
InChI=1S/C11H12O7/c1-5(10(13)14)18-9-4-7(12)6(11(15)16)3-8(9)17-2/h3-5,12H,1-2H3,(H,13,14)(H,15,16)

> <PUBCHEM_IUPAC_INCHIKEY>
ZXXWDXRDXZTGNL-UHFFFAOYSA-N

> <PUBCHEM_XLOGP3_AA>
1.6

> <PUBCHEM_EXACT_MASS>
256.05830272

> <PUBCHEM_MOLECULAR_FORMULA>
C11H12O7

> <PUBCHEM_MOLECULAR_WEIGHT>
256.21

> <PUBCHEM_OPENEYE_CAN_SMILES>
CC(C(=O)O)OC1=C(C=C(C(=C1)O)C(=O)O)OC

> <PUBCHEM_OPENEYE_ISO_SMILES>
CC(C(=O)O)OC1=C(C=C(C(=C1)O)C(=O)O)OC

> <PUBCHEM_CACTVS_TPSA>
113

> <PUBCHEM_MONOISOTOPIC_WEIGHT>
256.05830272

> <PUBCHEM_TOTAL_CHARGE>
0

> <PUBCHEM_HEAVY_ATOM_COUNT>
18

> <PUBCHEM_ATOM_DEF_STEREO_COUNT>
0

> <PUBCHEM_ATOM_UDEF_STEREO_COUNT>
1

> <PUBCHEM_BOND_DEF_STEREO_COUNT>
0

> <PUBCHEM_BOND_UDEF_STEREO_COUNT>
0

> <PUBCHEM_ISOTOPIC_ATOM_COUNT>
0

> <PUBCHEM_COMPONENT_COUNT>
1

> <PUBCHEM_CACTVS_TAUTO_COUNT>
-1

> <PUBCHEM_COORDINATE_TYPE>
1
5
255

> <PUBCHEM_BONDANNOTATIONS>
10  13  8
11  14  8
12  13  8
12  14  8
8  10  8
8  11  8
9  15  3

$$$$
