 
  -OEChem-10192103552D

 33 32  0     0  0  0  0  0  0999 V2000
    6.0010   -1.2500    0.0000 O   0  0  0  0  0  0  0  0  0  0  0  0
    8.5991    1.2500    0.0000 O   0  0  0  0  0  0  0  0  0  0  0  0
    5.1350    1.2500    0.0000 O   0  0  0  0  0  0  0  0  0  0  0  0
    7.7331    2.7500    0.0000 O   0  0  0  0  0  0  0  0  0  0  0  0
    6.0010    2.7500    0.0000 O   0  0  0  0  0  0  0  0  0  0  0  0
    5.1350    0.2500    0.0000 O   0  0  0  0  0  0  0  0  0  0  0  0
    6.8671    1.2500    0.0000 C   0  0  0  0  0  0  0  0  0  0  0  0
    6.8671    0.2500    0.0000 C   0  0  0  0  0  0  0  0  0  0  0  0
    7.7331    1.7500    0.0000 C   0  0  0  0  0  0  0  0  0  0  0  0
    6.0010    1.7500    0.0000 C   0  0  0  0  0  0  0  0  0  0  0  0
    6.0010   -0.2500    0.0000 C   0  0  0  0  0  0  0  0  0  0  0  0
    5.1350   -1.7500    0.0000 C   0  0  0  0  0  0  0  0  0  0  0  0
    5.1350   -2.7500    0.0000 C   0  0  0  0  0  0  0  0  0  0  0  0
    9.4651    1.7500    0.0000 C   0  0  0  0  0  0  0  0  0  0  0  0
    4.2690    1.7500    0.0000 C   0  0  0  0  0  0  0  0  0  0  0  0
   10.3312    1.2500    0.0000 C   0  0  0  0  0  0  0  0  0  0  0  0
    3.4030    1.2500    0.0000 C   0  0  0  0  0  0  0  0  0  0  0  0
   11.1972    0.7500    0.0000 C   0  0  0  0  0  0  0  0  0  0  0  0
    2.5369    0.7500    0.0000 C   0  0  0  0  0  0  0  0  0  0  0  0
    6.3301    0.9400    0.0000 H   0  0  0  0  0  0  0  0  0  0  0  0
    7.0791   -0.3326    0.0000 H   0  0  0  0  0  0  0  0  0  0  0  0
    7.4776    0.3577    0.0000 H   0  0  0  0  0  0  0  0  0  0  0  0
    4.9230   -1.1674    0.0000 H   0  0  0  0  0  0  0  0  0  0  0  0
    4.5244   -1.8577    0.0000 H   0  0  0  0  0  0  0  0  0  0  0  0
    4.5150   -2.7500    0.0000 H   0  0  0  0  0  0  0  0  0  0  0  0
    5.1350   -3.3700    0.0000 H   0  0  0  0  0  0  0  0  0  0  0  0
    5.7550   -2.7500    0.0000 H   0  0  0  0  0  0  0  0  0  0  0  0
    9.8637    2.2250    0.0000 H   0  0  0  0  0  0  0  0  0  0  0  0
    9.0666    2.2250    0.0000 H   0  0  0  0  0  0  0  0  0  0  0  0
    4.6675    2.2250    0.0000 H   0  0  0  0  0  0  0  0  0  0  0  0
    3.8705    2.2250    0.0000 H   0  0  0  0  0  0  0  0  0  0  0  0
   11.7341    0.4400    0.0000 H   0  0  0  0  0  0  0  0  0  0  0  0
    2.0000    0.4400    0.0000 H   0  0  0  0  0  0  0  0  0  0  0  0
  1 11  1  0  0  0  0
  1 12  1  0  0  0  0
  2  9  1  0  0  0  0
  2 14  1  0  0  0  0
  3 10  1  0  0  0  0
  3 15  1  0  0  0  0
  4  9  2  0  0  0  0
  5 10  2  0  0  0  0
  6 11  2  0  0  0  0
  7  8  1  0  0  0  0
  7  9  1  0  0  0  0
  7 10  1  0  0  0  0
  7 20  1  0  0  0  0
  8 11  1  0  0  0  0
  8 21  1  0  0  0  0
  8 22  1  0  0  0  0
 12 13  1  0  0  0  0
 12 23  1  0  0  0  0
 12 24  1  0  0  0  0
 13 25  1  0  0  0  0
 13 26  1  0  0  0  0
 13 27  1  0  0  0  0
 14 16  1  0  0  0  0
 14 28  1  0  0  0  0
 14 29  1  0  0  0  0
 15 17  1  0  0  0  0
 15 30  1  0  0  0  0
 15 31  1  0  0  0  0
 16 18  3  0  0  0  0
 17 19  3  0  0  0  0
 18 32  1  0  0  0  0
 19 33  1  0  0  0  0
M  END
> <PUBCHEM_COMPOUND_CID>
130210078

> <PUBCHEM_COMPOUND_CANONICALIZED>
1

> <PUBCHEM_CACTVS_COMPLEXITY>
401

> <PUBCHEM_CACTVS_HBOND_ACCEPTOR>
6

> <PUBCHEM_CACTVS_HBOND_DONOR>
0

> <PUBCHEM_CACTVS_ROTATABLE_BOND>
10

> <PUBCHEM_CACTVS_SUBSKEYS>
AAADccBwOAAAAAAAAAAAAAAAAAAAAAAAAAAAAAAAAAAAAAAAAAAAGgAAAAAADQCggAICCAAABABIGACQCAAAAAAAAAAAAAEAAAAAABQIAAACAAAFIAAAAABDAAAIAAAAAAAAAAAAAAAAAAAAAAAAAAAAAA==

> <PUBCHEM_IUPAC_OPENEYE_NAME>
O2-ethyl O1,O1-bis(prop-2-ynyl) ethane-1,1,2-tricarboxylate

> <PUBCHEM_IUPAC_CAS_NAME>
ethane-1,1,2-tricarboxylic acid O2-ethyl ester O1,O1-bis(prop-2-ynyl) ester

> <PUBCHEM_IUPAC_NAME_MARKUP>
2-<I>O</I>-ethyl 1-<I>O</I>,1-<I>O</I>-bis(prop-2-ynyl) ethane-1,1,2-tricarboxylate

> <PUBCHEM_IUPAC_NAME>
2-O-ethyl 1-O,1-O-bis(prop-2-ynyl) ethane-1,1,2-tricarboxylate

> <PUBCHEM_IUPAC_SYSTEMATIC_NAME>
O2-ethyl O1,O1-bis(prop-2-ynyl) ethane-1,1,2-tricarboxylate

> <PUBCHEM_IUPAC_TRADITIONAL_NAME>
ethane-1,1,2-tricarboxylic acid O2-ethyl ester O1,O1-dipropargyl ester

> <PUBCHEM_IUPAC_INCHI>
InChI=1S/C13H14O6/c1-4-7-18-12(15)10(9-11(14)17-6-3)13(16)19-8-5-2/h1-2,10H,6-9H2,3H3

> <PUBCHEM_IUPAC_INCHIKEY>
SPWUIBDPJQNHQC-UHFFFAOYSA-N

> <PUBCHEM_XLOGP3_AA>
0.6

> <PUBCHEM_EXACT_MASS>
266.07903816

> <PUBCHEM_MOLECULAR_FORMULA>
C13H14O6

> <PUBCHEM_MOLECULAR_WEIGHT>
266.25

> <PUBCHEM_OPENEYE_CAN_SMILES>
CCOC(=O)CC(C(=O)OCC#C)C(=O)OCC#C

> <PUBCHEM_OPENEYE_ISO_SMILES>
CCOC(=O)CC(C(=O)OCC#C)C(=O)OCC#C

> <PUBCHEM_CACTVS_TPSA>
78.9

> <PUBCHEM_MONOISOTOPIC_WEIGHT>
266.07903816

> <PUBCHEM_TOTAL_CHARGE>
0

> <PUBCHEM_HEAVY_ATOM_COUNT>
19

> <PUBCHEM_ATOM_DEF_STEREO_COUNT>
0

> <PUBCHEM_ATOM_UDEF_STEREO_COUNT>
0

> <PUBCHEM_BOND_DEF_STEREO_COUNT>
0

> <PUBCHEM_BOND_UDEF_STEREO_COUNT>
0

> <PUBCHEM_ISOTOPIC_ATOM_COUNT>
0

> <PUBCHEM_COMPONENT_COUNT>
1

> <PUBCHEM_CACTVS_TAUTO_COUNT>
-1

> <PUBCHEM_COORDINATE_TYPE>
1
5
255

$$$$
