 
  -OEChem-10192104232D

 43 43  0     1  0  0  0  0  0999 V2000
    4.3802    0.0377    0.0000 O   0  0  0  0  0  0  0  0  0  0  0  0
    5.1906    1.7205    0.0000 O   0  0  0  0  0  0  0  0  0  0  0  0
    4.6384   -1.6750    0.0000 O   0  0  0  0  0  0  0  0  0  0  0  0
    6.6906    2.5865    0.0000 O   0  0  0  0  0  0  0  0  0  0  0  0
    3.0261   -1.0422    0.0000 O   0  0  0  0  0  0  0  0  0  0  0  0
    5.1906    3.4526    0.0000 O   0  0  0  0  0  0  0  0  0  0  0  0
    3.7568    0.8195    0.0000 C   0  0  3  0  0  0  0  0  0  0  0  0
    4.1906    1.7205    0.0000 C   0  0  3  0  0  0  0  0  0  0  0  0
    2.7818    0.5970    0.0000 C   0  0  0  0  0  0  0  0  0  0  0  0
    3.7568    2.6215    0.0000 C   0  0  0  0  0  0  0  0  0  0  0  0
    2.0000    1.2205    0.0000 C   0  0  0  0  0  0  0  0  0  0  0  0
    2.7818    2.8440    0.0000 C   0  0  0  0  0  0  0  0  0  0  0  0
    2.0000    2.2205    0.0000 C   0  0  0  0  0  0  0  0  0  0  0  0
    4.0149   -0.8932    0.0000 C   0  0  0  0  0  0  0  0  0  0  0  0
    5.6906    2.5865    0.0000 C   0  0  0  0  0  0  0  0  0  0  0  0
    4.2731   -2.6059    0.0000 C   0  0  0  0  0  0  0  0  0  0  0  0
    7.1906    3.4526    0.0000 C   0  0  0  0  0  0  0  0  0  0  0  0
    4.8966   -3.3877    0.0000 C   0  0  0  0  0  0  0  0  0  0  0  0
    8.1906    3.4526    0.0000 C   0  0  0  0  0  0  0  0  0  0  0  0
    4.5312   -4.3186    0.0000 C   0  0  0  0  0  0  0  0  0  0  0  0
    8.6906    4.3186    0.0000 C   0  0  0  0  0  0  0  0  0  0  0  0
    3.5520    0.2343    0.0000 H   0  0  0  0  0  0  0  0  0  0  0  0
    4.5205    1.1955    0.0000 H   0  0  0  0  0  0  0  0  0  0  0  0
    2.2971    0.2105    0.0000 H   0  0  0  0  0  0  0  0  0  0  0  0
    3.0508    0.0384    0.0000 H   0  0  0  0  0  0  0  0  0  0  0  0
    4.3612    2.7594    0.0000 H   0  0  0  0  0  0  0  0  0  0  0  0
    3.7568    3.2415    0.0000 H   0  0  0  0  0  0  0  0  0  0  0  0
    1.3955    1.3585    0.0000 H   0  0  0  0  0  0  0  0  0  0  0  0
    1.7310    0.6619    0.0000 H   0  0  0  0  0  0  0  0  0  0  0  0
    3.0508    3.4026    0.0000 H   0  0  0  0  0  0  0  0  0  0  0  0
    2.2971    3.2306    0.0000 H   0  0  0  0  0  0  0  0  0  0  0  0
    1.7310    2.7791    0.0000 H   0  0  0  0  0  0  0  0  0  0  0  0
    1.3955    2.0825    0.0000 H   0  0  0  0  0  0  0  0  0  0  0  0
    3.7440   -2.2826    0.0000 H   0  0  0  0  0  0  0  0  0  0  0  0
    3.8628   -3.0707    0.0000 H   0  0  0  0  0  0  0  0  0  0  0  0
    7.2983    4.0631    0.0000 H   0  0  0  0  0  0  0  0  0  0  0  0
    6.6080    3.6646    0.0000 H   0  0  0  0  0  0  0  0  0  0  0  0
    5.5096   -3.2953    0.0000 H   0  0  0  0  0  0  0  0  0  0  0  0
    8.5006    2.9156    0.0000 H   0  0  0  0  0  0  0  0  0  0  0  0
    3.9181   -4.4110    0.0000 H   0  0  0  0  0  0  0  0  0  0  0  0
    4.9178   -4.8033    0.0000 H   0  0  0  0  0  0  0  0  0  0  0  0
    9.3106    4.3186    0.0000 H   0  0  0  0  0  0  0  0  0  0  0  0
    8.3806    4.8555    0.0000 H   0  0  0  0  0  0  0  0  0  0  0  0
  1  7  1  0  0  0  0
  1 14  1  0  0  0  0
  2  8  1  0  0  0  0
  2 15  1  0  0  0  0
  3 14  1  0  0  0  0
  3 16  1  0  0  0  0
  4 15  1  0  0  0  0
  4 17  1  0  0  0  0
  5 14  2  0  0  0  0
  6 15  2  0  0  0  0
  7  8  1  0  0  0  0
  7  9  1  0  0  0  0
  7 22  1  0  0  0  0
  8 10  1  0  0  0  0
  8 23  1  0  0  0  0
  9 11  1  0  0  0  0
  9 24  1  0  0  0  0
  9 25  1  0  0  0  0
 10 12  1  0  0  0  0
 10 26  1  0  0  0  0
 10 27  1  0  0  0  0
 11 13  1  0  0  0  0
 11 28  1  0  0  0  0
 11 29  1  0  0  0  0
 12 13  1  0  0  0  0
 12 30  1  0  0  0  0
 12 31  1  0  0  0  0
 13 32  1  0  0  0  0
 13 33  1  0  0  0  0
 16 18  1  0  0  0  0
 16 34  1  0  0  0  0
 16 35  1  0  0  0  0
 17 19  1  0  0  0  0
 17 36  1  0  0  0  0
 17 37  1  0  0  0  0
 18 20  2  0  0  0  0
 18 38  1  0  0  0  0
 19 21  2  0  0  0  0
 19 39  1  0  0  0  0
 20 40  1  0  0  0  0
 20 41  1  0  0  0  0
 21 42  1  0  0  0  0
 21 43  1  0  0  0  0
M  END
> <PUBCHEM_COMPOUND_CID>
67364957

> <PUBCHEM_COMPOUND_CANONICALIZED>
1

> <PUBCHEM_CACTVS_COMPLEXITY>
331

> <PUBCHEM_CACTVS_HBOND_ACCEPTOR>
6

> <PUBCHEM_CACTVS_HBOND_DONOR>
0

> <PUBCHEM_CACTVS_ROTATABLE_BOND>
10

> <PUBCHEM_CACTVS_SUBSKEYS>
AAADceBwOAAAAAAAAAAAAAAAAAAAAAAAAAAAAAAABgAAAAAAAAAAGgAAAAAACBSggAIACAAABACIACBCCAAAAAAAAAAIAAAAAAARBAIAIQAgAAAEAAAGIAGAwCAAAAAAAAAAAAAAAAAAAAAAAAAAAAAAAA==

> <PUBCHEM_IUPAC_OPENEYE_NAME>
allyl (2-allyloxycarbonyloxycycloheptyl) carbonate

> <PUBCHEM_IUPAC_CAS_NAME>
carbonic acid [2-[oxo(prop-2-enoxy)methoxy]cycloheptyl] prop-2-enyl ester

> <PUBCHEM_IUPAC_NAME_MARKUP>
(2-prop-2-enoxycarbonyloxycycloheptyl) prop-2-enyl carbonate

> <PUBCHEM_IUPAC_NAME>
(2-prop-2-enoxycarbonyloxycycloheptyl) prop-2-enyl carbonate

> <PUBCHEM_IUPAC_SYSTEMATIC_NAME>
(2-prop-2-enoxycarbonyloxycycloheptyl) prop-2-enyl carbonate

> <PUBCHEM_IUPAC_TRADITIONAL_NAME>
carbonic acid allyl (2-allyloxycarbonyloxycycloheptyl) ester

> <PUBCHEM_IUPAC_INCHI>
InChI=1S/C15H22O6/c1-3-10-18-14(16)20-12-8-6-5-7-9-13(12)21-15(17)19-11-4-2/h3-4,12-13H,1-2,5-11H2

> <PUBCHEM_IUPAC_INCHIKEY>
JBFJSSKEHQKWKK-UHFFFAOYSA-N

> <PUBCHEM_XLOGP3_AA>
4

> <PUBCHEM_EXACT_MASS>
298.14163842

> <PUBCHEM_MOLECULAR_FORMULA>
C15H22O6

> <PUBCHEM_MOLECULAR_WEIGHT>
298.33

> <PUBCHEM_OPENEYE_CAN_SMILES>
C=CCOC(=O)OC1CCCCCC1OC(=O)OCC=C

> <PUBCHEM_OPENEYE_ISO_SMILES>
C=CCOC(=O)OC1CCCCCC1OC(=O)OCC=C

> <PUBCHEM_CACTVS_TPSA>
71.1

> <PUBCHEM_MONOISOTOPIC_WEIGHT>
298.14163842

> <PUBCHEM_TOTAL_CHARGE>
0

> <PUBCHEM_HEAVY_ATOM_COUNT>
21

> <PUBCHEM_ATOM_DEF_STEREO_COUNT>
0

> <PUBCHEM_ATOM_UDEF_STEREO_COUNT>
2

> <PUBCHEM_BOND_DEF_STEREO_COUNT>
0

> <PUBCHEM_BOND_UDEF_STEREO_COUNT>
0

> <PUBCHEM_ISOTOPIC_ATOM_COUNT>
0

> <PUBCHEM_COMPONENT_COUNT>
1

> <PUBCHEM_CACTVS_TAUTO_COUNT>
-1

> <PUBCHEM_COORDINATE_TYPE>
1
5
255

> <PUBCHEM_BONDANNOTATIONS>
7  1  3
8  2  3

$$$$
