 
  -OEChem-10192104242D

 47 49  0     1  0  0  0  0  0999 V2000
    6.4504    3.3034    0.0000 P   0  0  0  0  0  0  0  0  0  0  0  0
    5.8055   -0.1498    0.0000 O   0  0  0  0  0  0  0  0  0  0  0  0
    8.1552    0.9340    0.0000 O   0  0  0  0  0  0  0  0  0  0  0  0
    8.1515   -1.2416    0.0000 O   0  0  0  0  0  0  0  0  0  0  0  0
    6.7577    2.3518    0.0000 O   0  0  0  0  0  0  0  0  0  0  0  0
    3.8244    2.9806    0.0000 O   0  0  0  0  0  0  0  0  0  0  0  0
    6.1430    4.2550    0.0000 O   0  0  0  0  0  0  0  0  0  0  0  0
    7.4020    3.6108    0.0000 O   0  0  0  0  0  0  0  0  0  0  0  0
    5.4988    2.9960    0.0000 O   0  0  0  0  0  0  0  0  0  0  0  0
    4.2690   -4.7150    0.0000 O   0  0  0  0  0  0  0  0  0  0  0  0
    6.0812   -1.9103    0.0000 N   0  0  0  0  0  0  0  0  0  0  0  0
    6.0812   -3.5198    0.0000 N   0  0  0  0  0  0  0  0  0  0  0  0
    4.2690   -1.7150    0.0000 N   0  0  0  0  0  0  0  0  0  0  0  0
    3.4030   -3.2150    0.0000 N   0  0  0  0  0  0  0  0  0  0  0  0
    3.5170    3.9322    0.0000 N   0  0  0  0  0  0  0  0  0  0  0  0
    2.5369   -1.7150    0.0000 N   0  0  0  0  0  0  0  0  0  0  0  0
    6.3947    0.6582    0.0000 C   0  0  1  0  0  0  0  0  0  0  0  0
    7.3452    0.3476    0.0000 C   0  0  2  0  0  0  0  0  0  0  0  0
    7.3435   -0.6524    0.0000 C   0  0  2  0  0  0  0  0  0  0  0  0
    6.3919   -0.9598    0.0000 C   0  0  1  0  0  0  0  0  0  0  0  0
    6.0873    1.6098    0.0000 C   0  0  3  0  0  0  0  0  0  0  0  0
    5.1095    1.8194    0.0000 C   0  0  0  0  0  0  0  0  0  0  0  0
    5.1350   -2.2150    0.0000 C   0  0  0  0  0  0  0  0  0  0  0  0
    4.8022    2.7710    0.0000 C   0  0  0  0  0  0  0  0  0  0  0  0
    6.6648   -2.7150    0.0000 C   0  0  0  0  0  0  0  0  0  0  0  0
    5.1350   -3.2150    0.0000 C   0  0  0  0  0  0  0  0  0  0  0  0
    4.2690   -3.7150    0.0000 C   0  0  0  0  0  0  0  0  0  0  0  0
    3.4030   -2.2150    0.0000 C   0  0  0  0  0  0  0  0  0  0  0  0
    5.7825    0.7563    0.0000 H   0  0  0  0  0  0  0  0  0  0  0  0
    7.2493    0.9601    0.0000 H   0  0  0  0  0  0  0  0  0  0  0  0
    7.8964   -0.3719    0.0000 H   0  0  0  0  0  0  0  0  0  0  0  0
    5.7794   -1.0557    0.0000 H   0  0  0  0  0  0  0  0  0  0  0  0
    5.8968    2.1998    0.0000 H   0  0  0  0  0  0  0  0  0  0  0  0
    4.4954    1.7342    0.0000 H   0  0  0  0  0  0  0  0  0  0  0  0
    5.0868    1.1999    0.0000 H   0  0  0  0  0  0  0  0  0  0  0  0
    8.7212    0.6808    0.0000 H   0  0  0  0  0  0  0  0  0  0  0  0
    8.7183   -0.9904    0.0000 H   0  0  0  0  0  0  0  0  0  0  0  0
    5.4163    2.8563    0.0000 H   0  0  0  0  0  0  0  0  0  0  0  0
    4.8249    3.3906    0.0000 H   0  0  0  0  0  0  0  0  0  0  0  0
    7.2848   -2.7150    0.0000 H   0  0  0  0  0  0  0  0  0  0  0  0
    2.8660   -3.5250    0.0000 H   0  0  0  0  0  0  0  0  0  0  0  0
    6.5587    4.7150    0.0000 H   0  0  0  0  0  0  0  0  0  0  0  0
    7.5319    4.2170    0.0000 H   0  0  0  0  0  0  0  0  0  0  0  0
    2.9108    4.0622    0.0000 H   0  0  0  0  0  0  0  0  0  0  0  0
    3.9327    4.3923    0.0000 H   0  0  0  0  0  0  0  0  0  0  0  0
    2.0000   -2.0250    0.0000 H   0  0  0  0  0  0  0  0  0  0  0  0
    2.5369   -1.0950    0.0000 H   0  0  0  0  0  0  0  0  0  0  0  0
  1  5  1  0  0  0  0
  1  7  1  0  0  0  0
  1  8  1  0  0  0  0
  1  9  2  0  0  0  0
  2 17  1  0  0  0  0
  2 20  1  0  0  0  0
 18  3  1  1  0  0  0
  3 36  1  0  0  0  0
 19  4  1  1  0  0  0
  4 37  1  0  0  0  0
  5 21  1  0  0  0  0
  6 15  1  0  0  0  0
  6 24  1  0  0  0  0
  7 42  1  0  0  0  0
  8 43  1  0  0  0  0
 10 27  2  0  0  0  0
 20 11  1  6  0  0  0
 11 23  1  0  0  0  0
 11 25  1  0  0  0  0
 12 25  2  0  0  0  0
 12 26  1  0  0  0  0
 13 23  1  0  0  0  0
 13 28  2  0  0  0  0
 14 27  1  0  0  0  0
 14 28  1  0  0  0  0
 14 41  1  0  0  0  0
 15 44  1  0  0  0  0
 15 45  1  0  0  0  0
 16 28  1  0  0  0  0
 16 46  1  0  0  0  0
 16 47  1  0  0  0  0
 17 18  1  0  0  0  0
 17 21  1  6  0  0  0
 17 29  1  0  0  0  0
 18 19  1  0  0  0  0
 18 30  1  0  0  0  0
 19 20  1  0  0  0  0
 19 31  1  0  0  0  0
 20 32  1  0  0  0  0
 21 22  1  0  0  0  0
 21 33  1  0  0  0  0
 22 24  1  0  0  0  0
 22 34  1  0  0  0  0
 22 35  1  0  0  0  0
 23 26  2  0  0  0  0
 24 38  1  0  0  0  0
 24 39  1  0  0  0  0
 25 40  1  0  0  0  0
 26 27  1  0  0  0  0
M  END
> <PUBCHEM_COMPOUND_CID>
137146573

> <PUBCHEM_COMPOUND_CANONICALIZED>
1

> <PUBCHEM_CACTVS_COMPLEXITY>
676

> <PUBCHEM_CACTVS_HBOND_ACCEPTOR>
12

> <PUBCHEM_CACTVS_HBOND_DONOR>
7

> <PUBCHEM_CACTVS_ROTATABLE_BOND>
7

> <PUBCHEM_CACTVS_SUBSKEYS>
AAADceBzvAIAAAAAAAAAAAAAAAAAAWJAAAAgAAAAAAAAAEABgAAAHgAUCCAACBzhlgYFsBfMFxCoQQdxdICAgC0XEKABUAGoVECDWApAyCAeQIgPAQLTAGHw8CYAAAAAAAAAAAAAAAAAAAAAAAAAAAAAAA==

> <PUBCHEM_IUPAC_OPENEYE_NAME>
[1-[(2S,3S,4R,5R)-5-(2-amino-6-oxo-1H-purin-9-yl)-3,4-dihydroxy-tetrahydrofuran-2-yl]-3-aminooxy-propyl] dihydrogen phosphate

> <PUBCHEM_IUPAC_CAS_NAME>
[1-[(2S,3S,4R,5R)-5-(2-amino-6-oxo-1H-purin-9-yl)-3,4-dihydroxy-2-oxolanyl]-3-aminooxypropyl] dihydrogen phosphate

> <PUBCHEM_IUPAC_NAME_MARKUP>
[1-[(2<I>S</I>,3<I>S</I>,4<I>R</I>,5<I>R</I>)-5-(2-amino-6-oxo-1<I>H</I>-purin-9-yl)-3,4-dihydroxyoxolan-2-yl]-3-aminooxypropyl] dihydrogen phosphate

> <PUBCHEM_IUPAC_NAME>
[1-[(2S,3S,4R,5R)-5-(2-amino-6-oxo-1H-purin-9-yl)-3,4-dihydroxyoxolan-2-yl]-3-aminooxypropyl] dihydrogen phosphate

> <PUBCHEM_IUPAC_SYSTEMATIC_NAME>
[1-[(2S,3S,4R,5R)-5-(2-azanyl-6-oxidanylidene-1H-purin-9-yl)-3,4-bis(oxidanyl)oxolan-2-yl]-3-azanyloxy-propyl] dihydrogen phosphate

> <PUBCHEM_IUPAC_TRADITIONAL_NAME>
[1-[(2S,3S,4R,5R)-5-(2-amino-6-keto-1H-purin-9-yl)-3,4-dihydroxy-tetrahydrofuran-2-yl]-3-aminooxy-propyl] dihydrogen phosphate

> <PUBCHEM_IUPAC_INCHI>
InChI=1S/C12H19N6O9P/c13-12-16-9-5(10(21)17-12)15-3-18(9)11-7(20)6(19)8(26-11)4(1-2-25-14)27-28(22,23)24/h3-4,6-8,11,19-20H,1-2,14H2,(H2,22,23,24)(H3,13,16,17,21)/t4?,6-,7+,8+,11+/m0/s1

> <PUBCHEM_IUPAC_INCHIKEY>
HUMCLQABQYCPOS-ONBHVAQOSA-N

> <PUBCHEM_XLOGP3>
-6.3

> <PUBCHEM_EXACT_MASS>
422.09511320

> <PUBCHEM_MOLECULAR_FORMULA>
C12H19N6O9P

> <PUBCHEM_MOLECULAR_WEIGHT>
422.29

> <PUBCHEM_OPENEYE_CAN_SMILES>
C1=NC2=C(N1C3C(C(C(O3)C(CCON)OP(=O)(O)O)O)O)N=C(NC2=O)N

> <PUBCHEM_OPENEYE_ISO_SMILES>
C1=NC2=C(N1[C@H]3[C@@H]([C@@H]([C@H](O3)C(CCON)OP(=O)(O)O)O)O)N=C(NC2=O)N

> <PUBCHEM_CACTVS_TPSA>
237

> <PUBCHEM_MONOISOTOPIC_WEIGHT>
422.09511320

> <PUBCHEM_TOTAL_CHARGE>
0

> <PUBCHEM_HEAVY_ATOM_COUNT>
28

> <PUBCHEM_ATOM_DEF_STEREO_COUNT>
4

> <PUBCHEM_ATOM_UDEF_STEREO_COUNT>
1

> <PUBCHEM_BOND_DEF_STEREO_COUNT>
0

> <PUBCHEM_BOND_UDEF_STEREO_COUNT>
0

> <PUBCHEM_ISOTOPIC_ATOM_COUNT>
0

> <PUBCHEM_COMPONENT_COUNT>
1

> <PUBCHEM_CACTVS_TAUTO_COUNT>
-1

> <PUBCHEM_COORDINATE_TYPE>
1
5
255

> <PUBCHEM_BONDANNOTATIONS>
20  11  6
11  23  8
11  25  8
12  25  8
12  26  8
13  23  8
13  28  8
14  27  8
14  28  8
17  21  6
21  22  3
23  26  8
26  27  8
18  3  5
19  4  5

$$$$
