 
  -OEChem-10192104422D

 34 35  0     1  0  0  0  0  0999 V2000
    5.4920    0.4480    0.0000 O   0  0  0  0  0  0  0  0  0  0  0  0
    3.7320    2.4827    0.0000 O   0  0  0  0  0  0  0  0  0  0  0  0
    2.8660    0.9827    0.0000 O   0  0  0  0  0  0  0  0  0  0  0  0
    6.3981    2.0035    0.0000 O   0  0  0  0  0  0  0  0  0  0  0  0
    4.5981   -1.0173    0.0000 O   0  0  0  0  0  0  0  0  0  0  0  0
    2.8660   -2.0173    0.0000 O   0  0  0  0  0  0  0  0  0  0  0  0
    2.0000   -0.5173    0.0000 O   0  0  0  0  0  0  0  0  0  0  0  0
    4.5981    0.9827    0.0000 C   0  0  2  0  0  0  0  0  0  0  0  0
    4.5981    1.9827    0.0000 C   0  0  2  0  0  0  0  0  0  0  0  0
    3.7320    0.4827    0.0000 C   0  0  2  0  0  0  0  0  0  0  0  0
    5.4920    2.5173    0.0000 C   0  0  0  0  0  0  0  0  0  0  0  0
    2.8660    1.9827    0.0000 C   0  0  3  0  0  0  0  0  0  0  0  0
    6.3981    0.9619    0.0000 C   0  0  3  0  0  0  0  0  0  0  0  0
    3.7320   -0.5173    0.0000 C   0  0  0  0  0  0  0  0  0  0  0  0
    2.0000    2.4827    0.0000 C   0  0  0  0  0  0  0  0  0  0  0  0
    7.2622    0.4585    0.0000 C   0  0  0  0  0  0  0  0  0  0  0  0
    2.8660   -1.0173    0.0000 C   0  0  0  0  0  0  0  0  0  0  0  0
    2.0000   -2.5173    0.0000 C   0  0  0  0  0  0  0  0  0  0  0  0
    4.5915    0.1327    0.0000 H   0  0  0  0  0  0  0  0  0  0  0  0
    4.5915    2.8326    0.0000 H   0  0  0  0  0  0  0  0  0  0  0  0
    3.1951    0.1727    0.0000 H   0  0  0  0  0  0  0  0  0  0  0  0
    5.8856    2.9964    0.0000 H   0  0  0  0  0  0  0  0  0  0  0  0
    5.0874    2.9871    0.0000 H   0  0  0  0  0  0  0  0  0  0  0  0
    2.8660    2.6027    0.0000 H   0  0  0  0  0  0  0  0  0  0  0  0
    6.9356    1.2708    0.0000 H   0  0  0  0  0  0  0  0  0  0  0  0
    2.3100    3.0196    0.0000 H   0  0  0  0  0  0  0  0  0  0  0  0
    1.4631    2.7927    0.0000 H   0  0  0  0  0  0  0  0  0  0  0  0
    1.6900    1.9457    0.0000 H   0  0  0  0  0  0  0  0  0  0  0  0
    6.9501   -0.0772    0.0000 H   0  0  0  0  0  0  0  0  0  0  0  0
    7.7979    0.1465    0.0000 H   0  0  0  0  0  0  0  0  0  0  0  0
    7.5742    0.9943    0.0000 H   0  0  0  0  0  0  0  0  0  0  0  0
    1.6900   -1.9804    0.0000 H   0  0  0  0  0  0  0  0  0  0  0  0
    1.4631   -2.8273    0.0000 H   0  0  0  0  0  0  0  0  0  0  0  0
    2.3100   -3.0543    0.0000 H   0  0  0  0  0  0  0  0  0  0  0  0
  1  8  1  0  0  0  0
  1 13  1  0  0  0  0
  2  9  1  0  0  0  0
  2 12  1  0  0  0  0
  3 10  1  0  0  0  0
  3 12  1  0  0  0  0
  4 11  1  0  0  0  0
  4 13  1  0  0  0  0
  5 14  2  0  0  0  0
  6 17  1  0  0  0  0
  6 18  1  0  0  0  0
  7 17  2  0  0  0  0
  8  9  1  0  0  0  0
  8 10  1  0  0  0  0
  8 19  1  6  0  0  0
  9 11  1  0  0  0  0
  9 20  1  6  0  0  0
 10 14  1  6  0  0  0
 10 21  1  0  0  0  0
 11 22  1  0  0  0  0
 11 23  1  0  0  0  0
 12 15  1  0  0  0  0
 12 24  1  0  0  0  0
 13 16  1  0  0  0  0
 13 25  1  0  0  0  0
 14 17  1  0  0  0  0
 15 26  1  0  0  0  0
 15 27  1  0  0  0  0
 15 28  1  0  0  0  0
 16 29  1  0  0  0  0
 16 30  1  0  0  0  0
 16 31  1  0  0  0  0
 18 32  1  0  0  0  0
 18 33  1  0  0  0  0
 18 34  1  0  0  0  0
M  END
> <PUBCHEM_COMPOUND_CID>
10923258

> <PUBCHEM_COMPOUND_CANONICALIZED>
1

> <PUBCHEM_CACTVS_COMPLEXITY>
342

> <PUBCHEM_CACTVS_HBOND_ACCEPTOR>
7

> <PUBCHEM_CACTVS_HBOND_DONOR>
0

> <PUBCHEM_CACTVS_ROTATABLE_BOND>
3

> <PUBCHEM_CACTVS_SUBSKEYS>
AAADceBwOAAAAAAAAAAAAAAAAAAAAAAAAAAkSAAAAAAAAACQAAAAGgAAAAAACBSwgAMCCAAABAAIAICQCAIAAAAAAAAAAAFAAAARABYAAAQiAAAFIAAGAAHKbAxAAAAAAAAAAAAAAAAAAAAAAAAAAAAAAA==

> <PUBCHEM_IUPAC_OPENEYE_NAME>
methyl 2-[(4R,4aR,8aS)-2,6-dimethyl-4,4a,8,8a-tetrahydro-[1,3]dioxino[5,4-d][1,3]dioxin-4-yl]-2-oxo-acetate

> <PUBCHEM_IUPAC_CAS_NAME>
2-[(4R,4aR,8aS)-2,6-dimethyl-4,4a,8,8a-tetrahydro-[1,3]dioxino[5,4-d][1,3]dioxin-4-yl]-2-oxoacetic acid methyl ester

> <PUBCHEM_IUPAC_NAME_MARKUP>
methyl 2-[(4<I>R</I>,4<I>a</I><I>R</I>,8<I>a</I><I>S</I>)-2,6-dimethyl-4,4<I>a</I>,8,8<I>a</I>-tetrahydro-[1,3]dioxino[5,4-d][1,3]dioxin-4-yl]-2-oxoacetate

> <PUBCHEM_IUPAC_NAME>
methyl 2-[(4R,4aR,8aS)-2,6-dimethyl-4,4a,8,8a-tetrahydro-[1,3]dioxino[5,4-d][1,3]dioxin-4-yl]-2-oxoacetate

> <PUBCHEM_IUPAC_SYSTEMATIC_NAME>
methyl 2-[(4R,4aR,8aS)-2,6-dimethyl-4,4a,8,8a-tetrahydro-[1,3]dioxino[5,4-d][1,3]dioxin-4-yl]-2-oxidanylidene-ethanoate

> <PUBCHEM_IUPAC_TRADITIONAL_NAME>
2-[(4R,4aR,8aS)-2,6-dimethyl-4,4a,8,8a-tetrahydro-[1,3]dioxino[5,4-d][1,3]dioxin-4-yl]-2-keto-acetic acid methyl ester

> <PUBCHEM_IUPAC_INCHI>
InChI=1S/C11H16O7/c1-5-15-4-7-9(17-5)10(18-6(2)16-7)8(12)11(13)14-3/h5-7,9-10H,4H2,1-3H3/t5?,6?,7-,9+,10-/m0/s1

> <PUBCHEM_IUPAC_INCHIKEY>
ZBUPZRQBYJXPGY-SZXRCFEGSA-N

> <PUBCHEM_XLOGP3_AA>
0.2

> <PUBCHEM_EXACT_MASS>
260.08960285

> <PUBCHEM_MOLECULAR_FORMULA>
C11H16O7

> <PUBCHEM_MOLECULAR_WEIGHT>
260.24

> <PUBCHEM_OPENEYE_CAN_SMILES>
CC1OCC2C(O1)C(OC(O2)C)C(=O)C(=O)OC

> <PUBCHEM_OPENEYE_ISO_SMILES>
CC1OC[C@H]2[C@@H](O1)[C@@H](OC(O2)C)C(=O)C(=O)OC

> <PUBCHEM_CACTVS_TPSA>
80.3

> <PUBCHEM_MONOISOTOPIC_WEIGHT>
260.08960285

> <PUBCHEM_TOTAL_CHARGE>
0

> <PUBCHEM_HEAVY_ATOM_COUNT>
18

> <PUBCHEM_ATOM_DEF_STEREO_COUNT>
3

> <PUBCHEM_ATOM_UDEF_STEREO_COUNT>
2

> <PUBCHEM_BOND_DEF_STEREO_COUNT>
0

> <PUBCHEM_BOND_UDEF_STEREO_COUNT>
0

> <PUBCHEM_ISOTOPIC_ATOM_COUNT>
0

> <PUBCHEM_COMPONENT_COUNT>
1

> <PUBCHEM_CACTVS_TAUTO_COUNT>
-1

> <PUBCHEM_COORDINATE_TYPE>
1
5
255

> <PUBCHEM_BONDANNOTATIONS>
10  14  6
12  15  3
13  16  3
8  19  6
9  20  6

$$$$
