 
  -OEChem-10192103532D

 62 64  0     1  0  0  0  0  0999 V2000
    6.6049   -0.7509    0.0000 O   0  0  0  0  0  0  0  0  0  0  0  0
    3.2588    1.1809    0.0000 O   0  0  0  0  0  0  0  0  0  0  0  0
    8.5125    0.5856    0.0000 O   0  0  0  0  0  0  0  0  0  0  0  0
    4.4613   -0.9038    0.0000 O   0  0  0  0  0  0  0  0  0  0  0  0
    6.3978    2.7540    0.0000 O   0  0  0  0  0  0  0  0  0  0  0  0
    2.0000    0.2150    0.0000 O   0  0  0  0  0  0  0  0  0  0  0  0
    5.8978   -1.4580    0.0000 C   0  0  3  0  0  0  0  0  0  0  0  0
    6.6632   -2.1062    0.0000 C   0  0  0  0  0  0  0  0  0  0  0  0
    6.8637    0.2150    0.0000 C   0  0  3  0  0  0  0  0  0  0  0  0
    7.6514   -1.9343    0.0000 C   0  0  3  0  0  0  0  0  0  0  0  0
    4.9318   -1.7169    0.0000 C   0  0  0  0  0  0  0  0  0  0  0  0
    7.8078   -0.1238    0.0000 C   0  0  3  0  0  0  0  0  0  0  0  0
    8.1529   -1.0656    0.0000 C   0  0  0  0  0  0  0  0  0  0  0  0
    6.6049    1.1809    0.0000 C   0  0  3  0  0  0  0  0  0  0  0  0
    3.9659   -1.4580    0.0000 C   0  0  0  0  0  0  0  0  0  0  0  0
    3.2588   -0.7509    0.0000 C   0  0  3  0  0  0  0  0  0  0  0  0
    4.2156    0.9229    0.0000 C   0  0  3  0  0  0  0  0  0  0  0  0
    3.9659    1.8880    0.0000 C   0  0  3  0  0  0  0  0  0  0  0  0
    5.1346   -0.8118    0.0000 C   0  0  0  0  0  0  0  0  0  0  0  0
    4.9318    2.1468    0.0000 C   0  0  0  0  0  0  0  0  0  0  0  0
    3.9576   -0.0400    0.0000 C   0  0  0  0  0  0  0  0  0  0  0  0
    5.8978    1.8880    0.0000 C   0  0  0  0  0  0  0  0  0  0  0  0
    8.2241   -2.7540    0.0000 C   0  0  0  0  0  0  0  0  0  0  0  0
    5.2155    0.9186    0.0000 C   0  0  0  0  0  0  0  0  0  0  0  0
    7.4709    1.6809    0.0000 C   0  0  0  0  0  0  0  0  0  0  0  0
    3.0000    0.2150    0.0000 C   0  0  0  0  0  0  0  0  0  0  0  0
    5.7118    0.0504    0.0000 C   0  0  0  0  0  0  0  0  0  0  0  0
    4.7706   -0.2875    0.0000 C   0  0  0  0  0  0  0  0  0  0  0  0
    6.1646   -2.4746    0.0000 H   0  0  0  0  0  0  0  0  0  0  0  0
    6.9071   -2.6762    0.0000 H   0  0  0  0  0  0  0  0  0  0  0  0
    7.3199    0.6349    0.0000 H   0  0  0  0  0  0  0  0  0  0  0  0
    7.4132   -2.5067    0.0000 H   0  0  0  0  0  0  0  0  0  0  0  0
    4.5762   -2.2247    0.0000 H   0  0  0  0  0  0  0  0  0  0  0  0
    4.9318   -1.0969    0.0000 H   0  0  0  0  0  0  0  0  0  0  0  0
    8.4134   -0.2563    0.0000 H   0  0  0  0  0  0  0  0  0  0  0  0
    8.6042   -1.4907    0.0000 H   0  0  0  0  0  0  0  0  0  0  0  0
    8.6704   -0.7241    0.0000 H   0  0  0  0  0  0  0  0  0  0  0  0
    6.6858    1.7956    0.0000 H   0  0  0  0  0  0  0  0  0  0  0  0
    3.4040   -1.7201    0.0000 H   0  0  0  0  0  0  0  0  0  0  0  0
    4.2759   -0.9211    0.0000 H   0  0  0  0  0  0  0  0  0  0  0  0
    2.7219   -1.0609    0.0000 H   0  0  0  0  0  0  0  0  0  0  0  0
    4.5919    0.4302    0.0000 H   0  0  0  0  0  0  0  0  0  0  0  0
    3.6559    2.4250    0.0000 H   0  0  0  0  0  0  0  0  0  0  0  0
    5.5353   -0.3387    0.0000 H   0  0  0  0  0  0  0  0  0  0  0  0
    4.6615   -0.4112    0.0000 H   0  0  0  0  0  0  0  0  0  0  0  0
    4.7340   -1.2850    0.0000 H   0  0  0  0  0  0  0  0  0  0  0  0
    5.2875    2.6547    0.0000 H   0  0  0  0  0  0  0  0  0  0  0  0
    4.9318    1.5268    0.0000 H   0  0  0  0  0  0  0  0  0  0  0  0
    7.7158   -3.1091    0.0000 H   0  0  0  0  0  0  0  0  0  0  0  0
    8.5791   -3.2623    0.0000 H   0  0  0  0  0  0  0  0  0  0  0  0
    8.7324   -2.3990    0.0000 H   0  0  0  0  0  0  0  0  0  0  0  0
    5.7991    1.1281    0.0000 H   0  0  0  0  0  0  0  0  0  0  0  0
    5.1105    1.5296    0.0000 H   0  0  0  0  0  0  0  0  0  0  0  0
    7.7809    1.1440    0.0000 H   0  0  0  0  0  0  0  0  0  0  0  0
    8.0078    1.9909    0.0000 H   0  0  0  0  0  0  0  0  0  0  0  0
    7.1609    2.2178    0.0000 H   0  0  0  0  0  0  0  0  0  0  0  0
    9.1119    0.4272    0.0000 H   0  0  0  0  0  0  0  0  0  0  0  0
    5.9549   -0.5200    0.0000 H   0  0  0  0  0  0  0  0  0  0  0  0
    6.2670    0.3262    0.0000 H   0  0  0  0  0  0  0  0  0  0  0  0
    4.5611    0.2960    0.0000 H   0  0  0  0  0  0  0  0  0  0  0  0
    4.1871   -0.4971    0.0000 H   0  0  0  0  0  0  0  0  0  0  0  0
    4.9801   -0.8711    0.0000 H   0  0  0  0  0  0  0  0  0  0  0  0
  1  7  1  0  0  0  0
  1  9  1  0  0  0  0
  2 18  1  0  0  0  0
  2 26  1  0  0  0  0
  3 12  1  0  0  0  0
  3 57  1  0  0  0  0
  4 21  2  0  0  0  0
  5 22  2  0  0  0  0
  6 26  2  0  0  0  0
  7  8  1  0  0  0  0
  7 11  1  0  0  0  0
  7 19  1  0  0  0  0
  8 10  1  0  0  0  0
  8 29  1  0  0  0  0
  8 30  1  0  0  0  0
  9 12  1  0  0  0  0
  9 14  1  0  0  0  0
  9 31  1  0  0  0  0
 10 13  1  0  0  0  0
 10 23  1  0  0  0  0
 10 32  1  0  0  0  0
 11 15  1  0  0  0  0
 11 33  1  0  0  0  0
 11 34  1  0  0  0  0
 12 13  1  0  0  0  0
 12 35  1  0  0  0  0
 13 36  1  0  0  0  0
 13 37  1  0  0  0  0
 14 22  1  0  0  0  0
 14 25  1  0  0  0  0
 14 38  1  0  0  0  0
 15 16  1  0  0  0  0
 15 39  1  0  0  0  0
 15 40  1  0  0  0  0
 16 21  1  0  0  0  0
 16 26  1  0  0  0  0
 16 41  1  0  0  0  0
 17 18  1  0  0  0  0
 17 21  1  0  0  0  0
 17 24  1  0  0  0  0
 17 42  1  0  0  0  0
 18 20  1  0  0  0  0
 18 43  1  0  0  0  0
 19 44  1  0  0  0  0
 19 45  1  0  0  0  0
 19 46  1  0  0  0  0
 20 22  1  0  0  0  0
 20 47  1  0  0  0  0
 20 48  1  0  0  0  0
 23 49  1  0  0  0  0
 23 50  1  0  0  0  0
 23 51  1  0  0  0  0
 24 27  1  0  0  0  0
 24 52  1  0  0  0  0
 24 53  1  0  0  0  0
 25 54  1  0  0  0  0
 25 55  1  0  0  0  0
 25 56  1  0  0  0  0
 27 28  1  0  0  0  0
 27 58  1  0  0  0  0
 27 59  1  0  0  0  0
 28 60  1  0  0  0  0
 28 61  1  0  0  0  0
 28 62  1  0  0  0  0
M  END
> <PUBCHEM_COMPOUND_CID>
123348672

> <PUBCHEM_COMPOUND_CANONICALIZED>
1

> <PUBCHEM_CACTVS_COMPLEXITY>
631

> <PUBCHEM_CACTVS_HBOND_ACCEPTOR>
6

> <PUBCHEM_CACTVS_HBOND_DONOR>
1

> <PUBCHEM_CACTVS_ROTATABLE_BOND>
2

> <PUBCHEM_CACTVS_SUBSKEYS>
AAADcfB4OAAAAAAAAAAAAAAAAAAAAAAAAAAkAAAABIAAAAAAAAAAGgAACAAADVSggAICCAAABgAIAICQCAAAAAAAAAAAAAEAAAABEBYIAAACQAAEIAADAAGK7vzuAAAAAAAAAAAAAAAAAAAAAAAAAAAAAA==

> <PUBCHEM_IUPAC_OPENEYE_NAME>
8-hydroxy-4,6,10-trimethyl-17-propyl-14,18-dioxatricyclo[11.2.2.14,9]octadecane-11,15,16-trione

> <PUBCHEM_IUPAC_CAS_NAME>
8-hydroxy-4,6,10-trimethyl-17-propyl-14,18-dioxatricyclo[11.2.2.14,9]octadecane-11,15,16-trione

> <PUBCHEM_IUPAC_NAME_MARKUP>
8-hydroxy-4,6,10-trimethyl-17-propyl-14,18-dioxatricyclo[11.2.2.1<SUP>4,9</SUP>]octadecane-11,15,16-trione

> <PUBCHEM_IUPAC_NAME>
8-hydroxy-4,6,10-trimethyl-17-propyl-14,18-dioxatricyclo[11.2.2.14,9]octadecane-11,15,16-trione

> <PUBCHEM_IUPAC_SYSTEMATIC_NAME>
4,6,10-trimethyl-8-oxidanyl-17-propyl-14,18-dioxatricyclo[11.2.2.14,9]octadecane-11,15,16-trione

> <PUBCHEM_IUPAC_TRADITIONAL_NAME>
8-hydroxy-4,6,10-trimethyl-17-propyl-14,18-dioxatricyclo[11.2.2.14,9]octadecane-11,15,16-trione

> <PUBCHEM_IUPAC_INCHI>
InChI=1S/C22H34O6/c1-5-6-14-18-10-16(23)13(3)20-17(24)9-12(2)11-22(4,28-20)8-7-15(19(14)25)21(26)27-18/h12-15,17-18,20,24H,5-11H2,1-4H3

> <PUBCHEM_IUPAC_INCHIKEY>
BQIAVTMFUMTTJS-UHFFFAOYSA-N

> <PUBCHEM_XLOGP3_AA>
2.9

> <PUBCHEM_EXACT_MASS>
394.23553880

> <PUBCHEM_MOLECULAR_FORMULA>
C22H34O6

> <PUBCHEM_MOLECULAR_WEIGHT>
394.5

> <PUBCHEM_OPENEYE_CAN_SMILES>
CCCC1C2CC(=O)C(C3C(CC(CC(O3)(CCC(C1=O)C(=O)O2)C)C)O)C

> <PUBCHEM_OPENEYE_ISO_SMILES>
CCCC1C2CC(=O)C(C3C(CC(CC(O3)(CCC(C1=O)C(=O)O2)C)C)O)C

> <PUBCHEM_CACTVS_TPSA>
89.9

> <PUBCHEM_MONOISOTOPIC_WEIGHT>
394.23553880

> <PUBCHEM_TOTAL_CHARGE>
0

> <PUBCHEM_HEAVY_ATOM_COUNT>
28

> <PUBCHEM_ATOM_DEF_STEREO_COUNT>
0

> <PUBCHEM_ATOM_UDEF_STEREO_COUNT>
8

> <PUBCHEM_BOND_DEF_STEREO_COUNT>
0

> <PUBCHEM_BOND_UDEF_STEREO_COUNT>
0

> <PUBCHEM_ISOTOPIC_ATOM_COUNT>
0

> <PUBCHEM_COMPONENT_COUNT>
1

> <PUBCHEM_CACTVS_TAUTO_COUNT>
-1

> <PUBCHEM_COORDINATE_TYPE>
1
5
255

> <PUBCHEM_BONDANNOTATIONS>
9  1  3
10  23  3
14  25  3
16  15  3
17  24  3
18  20  3
12  3  3
7  19  3

$$$$
