 
  -OEChem-10192104442D

 55 56  0     1  0  0  0  0  0999 V2000
    6.8671   -0.5000    0.0000 O   0  0  0  0  0  0  0  0  0  0  0  0
    6.8671    2.5000    0.0000 O   0  0  0  0  0  0  0  0  0  0  0  0
    5.1350   -0.5000    0.0000 O   0  0  0  0  0  0  0  0  0  0  0  0
    5.1350    0.5000    0.0000 O   0  0  0  0  0  0  0  0  0  0  0  0
    8.5991    2.5000    0.0000 O   0  0  0  0  0  0  0  0  0  0  0  0
    3.4030   -2.5000    0.0000 O   0  0  0  0  0  0  0  0  0  0  0  0
    6.8671   -2.5000    0.0000 O   0  0  0  0  0  0  0  0  0  0  0  0
    5.1350   -3.5000    0.0000 O   0  0  0  0  0  0  0  0  0  0  0  0
    5.1350    3.5000    0.0000 O   0  0  0  0  0  0  0  0  0  0  0  0
    2.5369   -1.0000    0.0000 O   0  0  0  0  0  0  0  0  0  0  0  0
    4.2690    2.0000    0.0000 O   0  0  0  0  0  0  0  0  0  0  0  0
    3.4030    0.5000    0.0000 O   0  0  0  0  0  0  0  0  0  0  0  0
    9.4651    2.0000    0.0000 O   0  0  0  0  0  0  0  0  0  0  0  0
    8.5991    0.5000    0.0000 N   0  0  0  0  0  0  0  0  0  0  0  0
    6.8671    0.5000    0.0000 C   0  0  3  0  0  0  0  0  0  0  0  0
    7.7331    1.0000    0.0000 C   0  0  1  0  0  0  0  0  0  0  0  0
    6.0010    1.0000    0.0000 C   0  0  1  0  0  0  0  0  0  0  0  0
    6.0010   -1.0000    0.0000 C   0  0  3  0  0  0  0  0  0  0  0  0
    6.0010   -2.0000    0.0000 C   0  0  2  0  0  0  0  0  0  0  0  0
    7.7331    2.0000    0.0000 C   0  0  3  0  0  0  0  0  0  0  0  0
    5.1350   -2.5000    0.0000 C   0  0  3  0  0  0  0  0  0  0  0  0
    6.0010    2.0000    0.0000 C   0  0  3  0  0  0  0  0  0  0  0  0
    4.2690   -2.0000    0.0000 C   0  0  1  0  0  0  0  0  0  0  0  0
    4.2690   -1.0000    0.0000 C   0  0  3  0  0  0  0  0  0  0  0  0
    5.1350    2.5000    0.0000 C   0  0  0  0  0  0  0  0  0  0  0  0
    3.4030   -0.5000    0.0000 C   0  0  0  0  0  0  0  0  0  0  0  0
    9.4651    1.0000    0.0000 C   0  0  0  0  0  0  0  0  0  0  0  0
    8.5991    3.5000    0.0000 C   0  0  0  0  0  0  0  0  0  0  0  0
    3.4030   -3.5000    0.0000 C   0  0  0  0  0  0  0  0  0  0  0  0
   10.3312    0.5000    0.0000 C   0  0  0  0  0  0  0  0  0  0  0  0
    7.4040    0.1900    0.0000 H   0  0  0  0  0  0  0  0  0  0  0  0
    7.7331    0.3800    0.0000 H   0  0  0  0  0  0  0  0  0  0  0  0
    6.0010    0.3800    0.0000 H   0  0  0  0  0  0  0  0  0  0  0  0
    6.0010   -0.3800    0.0000 H   0  0  0  0  0  0  0  0  0  0  0  0
    6.0010   -2.6200    0.0000 H   0  0  0  0  0  0  0  0  0  0  0  0
    8.2700    1.6900    0.0000 H   0  0  0  0  0  0  0  0  0  0  0  0
    4.5981   -2.8100    0.0000 H   0  0  0  0  0  0  0  0  0  0  0  0
    6.0010    2.6200    0.0000 H   0  0  0  0  0  0  0  0  0  0  0  0
    3.7320   -1.6900    0.0000 H   0  0  0  0  0  0  0  0  0  0  0  0
    4.2690   -0.3800    0.0000 H   0  0  0  0  0  0  0  0  0  0  0  0
    8.5991   -0.1200    0.0000 H   0  0  0  0  0  0  0  0  0  0  0  0
    4.5981    0.8100    0.0000 H   0  0  0  0  0  0  0  0  0  0  0  0
    7.4040   -2.1900    0.0000 H   0  0  0  0  0  0  0  0  0  0  0  0
    5.6720   -3.8100    0.0000 H   0  0  0  0  0  0  0  0  0  0  0  0
    9.2191    3.5000    0.0000 H   0  0  0  0  0  0  0  0  0  0  0  0
    8.5991    4.1200    0.0000 H   0  0  0  0  0  0  0  0  0  0  0  0
    7.9791    3.5000    0.0000 H   0  0  0  0  0  0  0  0  0  0  0  0
    2.7830   -3.5000    0.0000 H   0  0  0  0  0  0  0  0  0  0  0  0
    3.4030   -4.1200    0.0000 H   0  0  0  0  0  0  0  0  0  0  0  0
    4.0230   -3.5000    0.0000 H   0  0  0  0  0  0  0  0  0  0  0  0
   10.0212   -0.0369    0.0000 H   0  0  0  0  0  0  0  0  0  0  0  0
   10.8681    0.1900    0.0000 H   0  0  0  0  0  0  0  0  0  0  0  0
   10.6412    1.0369    0.0000 H   0  0  0  0  0  0  0  0  0  0  0  0
    4.5981    3.8100    0.0000 H   0  0  0  0  0  0  0  0  0  0  0  0
    2.0000   -0.6900    0.0000 H   0  0  0  0  0  0  0  0  0  0  0  0
  1 15  1  0  0  0  0
  1 18  1  0  0  0  0
  2 20  1  0  0  0  0
  2 22  1  0  0  0  0
  3 18  1  0  0  0  0
  3 24  1  0  0  0  0
 17  4  1  6  0  0  0
  4 42  1  0  0  0  0
  5 20  1  0  0  0  0
  5 28  1  0  0  0  0
 23  6  1  6  0  0  0
  6 29  1  0  0  0  0
 19  7  1  1  0  0  0
  7 43  1  0  0  0  0
  8 21  1  0  0  0  0
  8 44  1  0  0  0  0
  9 25  1  0  0  0  0
  9 54  1  0  0  0  0
 10 26  1  0  0  0  0
 10 55  1  0  0  0  0
 11 25  2  0  0  0  0
 12 26  2  0  0  0  0
 13 27  2  0  0  0  0
 16 14  1  1  0  0  0
 14 27  1  0  0  0  0
 14 41  1  0  0  0  0
 15 16  1  0  0  0  0
 15 17  1  0  0  0  0
 15 31  1  0  0  0  0
 16 20  1  0  0  0  0
 16 32  1  0  0  0  0
 17 22  1  0  0  0  0
 17 33  1  0  0  0  0
 18 19  1  0  0  0  0
 18 34  1  0  0  0  0
 19 21  1  0  0  0  0
 19 35  1  0  0  0  0
 20 36  1  0  0  0  0
 21 23  1  0  0  0  0
 21 37  1  0  0  0  0
 22 25  1  0  0  0  0
 22 38  1  0  0  0  0
 23 24  1  0  0  0  0
 23 39  1  0  0  0  0
 24 26  1  0  0  0  0
 24 40  1  0  0  0  0
 27 30  1  0  0  0  0
 28 45  1  0  0  0  0
 28 46  1  0  0  0  0
 28 47  1  0  0  0  0
 29 48  1  0  0  0  0
 29 49  1  0  0  0  0
 29 50  1  0  0  0  0
 30 51  1  0  0  0  0
 30 52  1  0  0  0  0
 30 53  1  0  0  0  0
M  END
> <PUBCHEM_COMPOUND_CID>
117705371

> <PUBCHEM_COMPOUND_CANONICALIZED>
1

> <PUBCHEM_CACTVS_COMPLEXITY>
645

> <PUBCHEM_CACTVS_HBOND_ACCEPTOR>
13

> <PUBCHEM_CACTVS_HBOND_DONOR>
6

> <PUBCHEM_CACTVS_ROTATABLE_BOND>
7

> <PUBCHEM_CACTVS_SUBSKEYS>
AAADceB6PAAAAAAAAAAAAAAAAAAAAAAAAAAkSAAAAAAAAAAAAAAAHgAQCAAACDzxgAcCCALABgAIAAGQGAIAAAAAAAAAAIFIAAATEBYAgAQnQAAHNgCXAAH6fQ9QAAAAAAAAAAAAAAAAAAAAAAAAAAAAAA==

> <PUBCHEM_IUPAC_OPENEYE_NAME>
(3S,5S)-5-acetamido-4-[(3S,5S)-6-carboxy-3,4-dihydroxy-5-methoxy-tetrahydropyran-2-yl]oxy-3-hydroxy-6-methoxy-tetrahydropyran-2-carboxylic acid

> <PUBCHEM_IUPAC_CAS_NAME>
(3S,5S)-5-acetamido-4-[[(3S,5S)-6-carboxy-3,4-dihydroxy-5-methoxy-2-oxanyl]oxy]-3-hydroxy-6-methoxy-2-oxanecarboxylic acid

> <PUBCHEM_IUPAC_NAME_MARKUP>
(3<I>S</I>,5<I>S</I>)-5-acetamido-4-[(3<I>S</I>,5<I>S</I>)-6-carboxy-3,4-dihydroxy-5-methoxyoxan-2-yl]oxy-3-hydroxy-6-methoxyoxane-2-carboxylic acid

> <PUBCHEM_IUPAC_NAME>
(3S,5S)-5-acetamido-4-[(3S,5S)-6-carboxy-3,4-dihydroxy-5-methoxyoxan-2-yl]oxy-3-hydroxy-6-methoxyoxane-2-carboxylic acid

> <PUBCHEM_IUPAC_SYSTEMATIC_NAME>
(3S,5S)-5-acetamido-4-[(3S,5S)-6-carboxy-5-methoxy-3,4-bis(oxidanyl)oxan-2-yl]oxy-6-methoxy-3-oxidanyl-oxane-2-carboxylic acid

> <PUBCHEM_IUPAC_TRADITIONAL_NAME>
(3S,5S)-5-acetamido-4-[(3S,5S)-6-carboxy-3,4-dihydroxy-5-methoxy-tetrahydropyran-2-yl]oxy-3-hydroxy-6-methoxy-tetrahydropyran-2-carboxylic acid

> <PUBCHEM_IUPAC_INCHI>
InChI=1S/C16H25NO13/c1-4(18)17-5-9(8(21)11(13(22)23)29-15(5)27-3)28-16-7(20)6(19)10(26-2)12(30-16)14(24)25/h5-12,15-16,19-21H,1-3H3,(H,17,18)(H,22,23)(H,24,25)/t5-,6?,7-,8-,9?,10-,11?,12?,15?,16?/m0/s1

> <PUBCHEM_IUPAC_INCHIKEY>
QADCMQFFHZNOOM-VDPLHZPJSA-N

> <PUBCHEM_XLOGP3_AA>
-3.2

> <PUBCHEM_EXACT_MASS>
439.13258985

> <PUBCHEM_MOLECULAR_FORMULA>
C16H25NO13

> <PUBCHEM_MOLECULAR_WEIGHT>
439.37

> <PUBCHEM_OPENEYE_CAN_SMILES>
CC(=O)NC1C(C(C(OC1OC)C(=O)O)O)OC2C(C(C(C(O2)C(=O)O)OC)O)O

> <PUBCHEM_OPENEYE_ISO_SMILES>
CC(=O)N[C@H]1C([C@@H](C(OC1OC)C(=O)O)O)OC2[C@H](C([C@@H](C(O2)C(=O)O)OC)O)O

> <PUBCHEM_CACTVS_TPSA>
211

> <PUBCHEM_MONOISOTOPIC_WEIGHT>
439.13258985

> <PUBCHEM_TOTAL_CHARGE>
0

> <PUBCHEM_HEAVY_ATOM_COUNT>
30

> <PUBCHEM_ATOM_DEF_STEREO_COUNT>
4

> <PUBCHEM_ATOM_UDEF_STEREO_COUNT>
6

> <PUBCHEM_BOND_DEF_STEREO_COUNT>
0

> <PUBCHEM_BOND_UDEF_STEREO_COUNT>
0

> <PUBCHEM_ISOTOPIC_ATOM_COUNT>
0

> <PUBCHEM_COMPONENT_COUNT>
1

> <PUBCHEM_CACTVS_TAUTO_COUNT>
-1

> <PUBCHEM_COORDINATE_TYPE>
1
5
255

> <PUBCHEM_BONDANNOTATIONS>
15  1  3
18  1  3
16  14  5
22  25  3
24  26  3
17  4  6
20  5  3
23  6  6
19  7  5
21  8  3

$$$$
