 
  -OEChem-10192103372D

 97 98  0     1  0  0  0  0  0999 V2000
    6.3301   -1.9050    0.0000 O   0  0  0  0  0  0  0  0  0  0  0  0
    6.3301    1.0950    0.0000 O   0  0  0  0  0  0  0  0  0  0  0  0
    7.1962    2.5950    0.0000 O   0  0  0  0  0  0  0  0  0  0  0  0
    4.5981   -1.9050    0.0000 O   0  0  0  0  0  0  0  0  0  0  0  0
    6.6962    0.4610    0.0000 O   0  0  0  0  0  0  0  0  0  0  0  0
    4.9641    4.4610    0.0000 O   0  0  0  0  0  0  0  0  0  0  0  0
    6.3301   -3.9050    0.0000 O   0  0  0  0  0  0  0  0  0  0  0  0
    6.3301    5.0950    0.0000 O   0  0  0  0  0  0  0  0  0  0  0  0
    2.8660    1.0950    0.0000 O   0  0  0  0  0  0  0  0  0  0  0  0
    3.7320   -0.4050    0.0000 O   0  0  0  0  0  0  0  0  0  0  0  0
    4.5981   -4.9050    0.0000 N   0  0  0  0  0  0  0  0  0  0  0  0
    9.7942    0.0950    0.0000 N   0  0  0  0  0  0  0  0  0  0  0  0
    6.3301   -0.9050    0.0000 C   0  0  2  0  0  0  0  0  0  0  0  0
    5.4641   -0.4050    0.0000 C   0  0  2  0  0  0  0  0  0  0  0  0
    7.1962   -0.4050    0.0000 C   0  0  1  0  0  0  0  0  0  0  0  0
    5.4641    0.5950    0.0000 C   0  0  1  0  0  0  0  0  0  0  0  0
    5.4641    3.5950    0.0000 C   0  0  2  0  0  0  0  0  0  0  0  0
    5.4641   -2.4050    0.0000 C   0  0  2  0  0  0  0  0  0  0  0  0
    6.3301    2.0950    0.0000 C   0  0  2  0  0  0  0  0  0  0  0  0
    8.0622    0.0950    0.0000 C   0  0  0  0  0  0  0  0  0  0  0  0
    5.4641    2.5950    0.0000 C   0  0  0  0  0  0  0  0  0  0  0  0
    4.5981    1.0950    0.0000 C   0  0  1  0  0  0  0  0  0  0  0  0
    5.4641   -3.4050    0.0000 C   0  0  1  0  0  0  0  0  0  0  0  0
    4.5981   -3.9050    0.0000 C   0  0  2  0  0  0  0  0  0  0  0  0
    6.3301    4.0950    0.0000 C   0  0  2  0  0  0  0  0  0  0  0  0
    4.5981   -0.9050    0.0000 C   0  0  0  0  0  0  0  0  0  0  0  0
    7.1962    3.5950    0.0000 C   0  0  2  0  0  0  0  0  0  0  0  0
    3.7320   -3.4050    0.0000 C   0  0  0  0  0  0  0  0  0  0  0  0
    7.6962   -1.2710    0.0000 C   0  0  0  0  0  0  0  0  0  0  0  0
    3.7320   -2.4050    0.0000 C   0  0  1  0  0  0  0  0  0  0  0  0
    8.9282   -0.4050    0.0000 C   0  0  1  0  0  0  0  0  0  0  0  0
    4.4641    3.5950    0.0000 C   0  0  0  0  0  0  0  0  0  0  0  0
    4.5981    2.0950    0.0000 C   0  0  0  0  0  0  0  0  0  0  0  0
    3.7320    0.5950    0.0000 C   0  0  0  0  0  0  0  0  0  0  0  0
    8.0622    4.0950    0.0000 C   0  0  0  0  0  0  0  0  0  0  0  0
    2.8660   -1.9050    0.0000 C   0  0  0  0  0  0  0  0  0  0  0  0
    8.9282   -1.4050    0.0000 C   0  0  0  0  0  0  0  0  0  0  0  0
    3.7320   -5.4050    0.0000 C   0  0  0  0  0  0  0  0  0  0  0  0
    5.4641   -5.4050    0.0000 C   0  0  0  0  0  0  0  0  0  0  0  0
    3.9641    4.4610    0.0000 C   0  0  0  0  0  0  0  0  0  0  0  0
    2.0000    0.5950    0.0000 C   0  0  0  0  0  0  0  0  0  0  0  0
    6.8671   -1.2150    0.0000 H   0  0  0  0  0  0  0  0  0  0  0  0
    5.4641   -1.0250    0.0000 H   0  0  0  0  0  0  0  0  0  0  0  0
    6.0010    0.2850    0.0000 H   0  0  0  0  0  0  0  0  0  0  0  0
    5.4641   -1.7850    0.0000 H   0  0  0  0  0  0  0  0  0  0  0  0
    5.7932    1.7850    0.0000 H   0  0  0  0  0  0  0  0  0  0  0  0
    8.4607    0.5699    0.0000 H   0  0  0  0  0  0  0  0  0  0  0  0
    7.6636    0.5699    0.0000 H   0  0  0  0  0  0  0  0  0  0  0  0
    4.8535    2.7027    0.0000 H   0  0  0  0  0  0  0  0  0  0  0  0
    5.2520    2.0124    0.0000 H   0  0  0  0  0  0  0  0  0  0  0  0
    5.1350    1.4050    0.0000 H   0  0  0  0  0  0  0  0  0  0  0  0
    5.4641   -4.0250    0.0000 H   0  0  0  0  0  0  0  0  0  0  0  0
    4.0611   -4.2150    0.0000 H   0  0  0  0  0  0  0  0  0  0  0  0
    5.7932    4.4050    0.0000 H   0  0  0  0  0  0  0  0  0  0  0  0
    4.2881   -0.3681    0.0000 H   0  0  0  0  0  0  0  0  0  0  0  0
    4.0611   -1.2150    0.0000 H   0  0  0  0  0  0  0  0  0  0  0  0
    4.9081   -1.4419    0.0000 H   0  0  0  0  0  0  0  0  0  0  0  0
    7.7331    3.2850    0.0000 H   0  0  0  0  0  0  0  0  0  0  0  0
    3.1215   -3.2973    0.0000 H   0  0  0  0  0  0  0  0  0  0  0  0
    3.5200   -3.9876    0.0000 H   0  0  0  0  0  0  0  0  0  0  0  0
    7.1592   -1.5810    0.0000 H   0  0  0  0  0  0  0  0  0  0  0  0
    8.0062   -1.8080    0.0000 H   0  0  0  0  0  0  0  0  0  0  0  0
    8.2331   -0.9610    0.0000 H   0  0  0  0  0  0  0  0  0  0  0  0
    3.7320   -1.7850    0.0000 H   0  0  0  0  0  0  0  0  0  0  0  0
    9.4651   -0.7150    0.0000 H   0  0  0  0  0  0  0  0  0  0  0  0
    4.4641    4.2150    0.0000 H   0  0  0  0  0  0  0  0  0  0  0  0
    3.8441    3.5950    0.0000 H   0  0  0  0  0  0  0  0  0  0  0  0
    4.4641    2.9750    0.0000 H   0  0  0  0  0  0  0  0  0  0  0  0
    7.0062    0.9980    0.0000 H   0  0  0  0  0  0  0  0  0  0  0  0
    5.2181    2.0950    0.0000 H   0  0  0  0  0  0  0  0  0  0  0  0
    4.5981    2.7150    0.0000 H   0  0  0  0  0  0  0  0  0  0  0  0
    3.9781    2.0950    0.0000 H   0  0  0  0  0  0  0  0  0  0  0  0
    8.3722    3.5581    0.0000 H   0  0  0  0  0  0  0  0  0  0  0  0
    8.5991    4.4050    0.0000 H   0  0  0  0  0  0  0  0  0  0  0  0
    7.7522    4.6319    0.0000 H   0  0  0  0  0  0  0  0  0  0  0  0
    3.1760   -1.3681    0.0000 H   0  0  0  0  0  0  0  0  0  0  0  0
    2.3291   -1.5950    0.0000 H   0  0  0  0  0  0  0  0  0  0  0  0
    2.5560   -2.4419    0.0000 H   0  0  0  0  0  0  0  0  0  0  0  0
    6.8671   -3.5950    0.0000 H   0  0  0  0  0  0  0  0  0  0  0  0
    8.3082   -1.4050    0.0000 H   0  0  0  0  0  0  0  0  0  0  0  0
    8.9282   -2.0250    0.0000 H   0  0  0  0  0  0  0  0  0  0  0  0
    9.5482   -1.4050    0.0000 H   0  0  0  0  0  0  0  0  0  0  0  0
    6.8671    5.4050    0.0000 H   0  0  0  0  0  0  0  0  0  0  0  0
    3.4220   -4.8681    0.0000 H   0  0  0  0  0  0  0  0  0  0  0  0
    3.1951   -5.7150    0.0000 H   0  0  0  0  0  0  0  0  0  0  0  0
    4.0420   -5.9419    0.0000 H   0  0  0  0  0  0  0  0  0  0  0  0
    5.1541   -5.9419    0.0000 H   0  0  0  0  0  0  0  0  0  0  0  0
    6.0010   -5.7150    0.0000 H   0  0  0  0  0  0  0  0  0  0  0  0
    5.7741   -4.8681    0.0000 H   0  0  0  0  0  0  0  0  0  0  0  0
   10.3312   -0.2150    0.0000 H   0  0  0  0  0  0  0  0  0  0  0  0
    9.7942    0.7150    0.0000 H   0  0  0  0  0  0  0  0  0  0  0  0
    3.9641    5.0810    0.0000 H   0  0  0  0  0  0  0  0  0  0  0  0
    3.3441    4.4610    0.0000 H   0  0  0  0  0  0  0  0  0  0  0  0
    3.9641    3.8410    0.0000 H   0  0  0  0  0  0  0  0  0  0  0  0
    1.6900    1.1319    0.0000 H   0  0  0  0  0  0  0  0  0  0  0  0
    1.4631    0.2850    0.0000 H   0  0  0  0  0  0  0  0  0  0  0  0
    2.3100    0.0581    0.0000 H   0  0  0  0  0  0  0  0  0  0  0  0
 13  1  1  6  0  0  0
 18  1  1  1  0  0  0
 16  2  1  1  0  0  0
 19  2  1  1  0  0  0
  3 19  1  0  0  0  0
  3 27  1  0  0  0  0
  4 18  1  0  0  0  0
  4 30  1  0  0  0  0
 15  5  1  1  0  0  0
  5 69  1  0  0  0  0
 17  6  1  1  0  0  0
  6 40  1  0  0  0  0
 23  7  1  6  0  0  0
  7 79  1  0  0  0  0
 25  8  1  1  0  0  0
  8 83  1  0  0  0  0
  9 34  1  0  0  0  0
  9 41  1  0  0  0  0
 10 34  2  0  0  0  0
 24 11  1  1  0  0  0
 11 38  1  0  0  0  0
 11 39  1  0  0  0  0
 31 12  1  6  0  0  0
 12 90  1  0  0  0  0
 12 91  1  0  0  0  0
 13 14  1  0  0  0  0
 13 15  1  0  0  0  0
 13 42  1  0  0  0  0
 14 16  1  0  0  0  0
 14 26  1  1  0  0  0
 14 43  1  0  0  0  0
 15 20  1  0  0  0  0
 15 29  1  0  0  0  0
 16 22  1  0  0  0  0
 16 44  1  0  0  0  0
 17 21  1  0  0  0  0
 17 25  1  0  0  0  0
 17 32  1  0  0  0  0
 18 23  1  0  0  0  0
 18 45  1  0  0  0  0
 19 21  1  0  0  0  0
 19 46  1  0  0  0  0
 20 31  1  0  0  0  0
 20 47  1  0  0  0  0
 20 48  1  0  0  0  0
 21 49  1  0  0  0  0
 21 50  1  0  0  0  0
 22 33  1  6  0  0  0
 22 34  1  0  0  0  0
 22 51  1  0  0  0  0
 23 24  1  0  0  0  0
 23 52  1  0  0  0  0
 24 28  1  0  0  0  0
 24 53  1  0  0  0  0
 25 27  1  0  0  0  0
 25 54  1  0  0  0  0
 26 55  1  0  0  0  0
 26 56  1  0  0  0  0
 26 57  1  0  0  0  0
 27 35  1  6  0  0  0
 27 58  1  0  0  0  0
 28 30  1  0  0  0  0
 28 59  1  0  0  0  0
 28 60  1  0  0  0  0
 29 61  1  0  0  0  0
 29 62  1  0  0  0  0
 29 63  1  0  0  0  0
 30 36  1  1  0  0  0
 30 64  1  0  0  0  0
 31 37  1  0  0  0  0
 31 65  1  0  0  0  0
 32 66  1  0  0  0  0
 32 67  1  0  0  0  0
 32 68  1  0  0  0  0
 33 70  1  0  0  0  0
 33 71  1  0  0  0  0
 33 72  1  0  0  0  0
 35 73  1  0  0  0  0
 35 74  1  0  0  0  0
 35 75  1  0  0  0  0
 36 76  1  0  0  0  0
 36 77  1  0  0  0  0
 36 78  1  0  0  0  0
 37 80  1  0  0  0  0
 37 81  1  0  0  0  0
 37 82  1  0  0  0  0
 38 84  1  0  0  0  0
 38 85  1  0  0  0  0
 38 86  1  0  0  0  0
 39 87  1  0  0  0  0
 39 88  1  0  0  0  0
 39 89  1  0  0  0  0
 40 92  1  0  0  0  0
 40 93  1  0  0  0  0
 40 94  1  0  0  0  0
 41 95  1  0  0  0  0
 41 96  1  0  0  0  0
 41 97  1  0  0  0  0
M  END
> <PUBCHEM_COMPOUND_CID>
9851488

> <PUBCHEM_COMPOUND_CANONICALIZED>
1

> <PUBCHEM_CACTVS_COMPLEXITY>
835

> <PUBCHEM_CACTVS_HBOND_ACCEPTOR>
12

> <PUBCHEM_CACTVS_HBOND_DONOR>
4

> <PUBCHEM_CACTVS_ROTATABLE_BOND>
14

> <PUBCHEM_CACTVS_SUBSKEYS>
AAADcfB7PAAAAAAAAAAAAAAAAAAAAAAAAAAkSAAAAAAAAAAAAAAAHgAQCAAADXzxgAcCCANABgAIAACQCAAAAAAAAAAAAIEIAAATEBYAgAAmQAAHMAAXAAH47PzOAAAAAAAAAAAAAAAAAAAAAAAAAAAAAA==

> <PUBCHEM_IUPAC_OPENEYE_NAME>
methyl (2R,3S,4S,5R,6R,8R)-8-amino-5-[(2S,3R,4S,6R)-4-(dimethylamino)-3-hydroxy-6-methyl-tetrahydropyran-2-yl]oxy-6-hydroxy-3-[(2R,4R,5S,6S)-5-hydroxy-4-methoxy-4,6-dimethyl-tetrahydropyran-2-yl]oxy-2,4,6-trimethyl-nonanoate

> <PUBCHEM_IUPAC_CAS_NAME>
(2R,3S,4S,5R,6R,8R)-8-amino-5-[[(2S,3R,4S,6R)-4-(dimethylamino)-3-hydroxy-6-methyl-2-oxanyl]oxy]-6-hydroxy-3-[[(2R,4R,5S,6S)-5-hydroxy-4-methoxy-4,6-dimethyl-2-oxanyl]oxy]-2,4,6-trimethylnonanoic acid methyl ester

> <PUBCHEM_IUPAC_NAME_MARKUP>
methyl (2<I>R</I>,3<I>S</I>,4<I>S</I>,5<I>R</I>,6<I>R</I>,8<I>R</I>)-8-amino-5-[(2<I>S</I>,3<I>R</I>,4<I>S</I>,6<I>R</I>)-4-(dimethylamino)-3-hydroxy-6-methyloxan-2-yl]oxy-6-hydroxy-3-[(2<I>R</I>,4<I>R</I>,5<I>S</I>,6<I>S</I>)-5-hydroxy-4-methoxy-4,6-dimethyloxan-2-yl]oxy-2,4,6-trimethylnonanoate

> <PUBCHEM_IUPAC_NAME>
methyl (2R,3S,4S,5R,6R,8R)-8-amino-5-[(2S,3R,4S,6R)-4-(dimethylamino)-3-hydroxy-6-methyloxan-2-yl]oxy-6-hydroxy-3-[(2R,4R,5S,6S)-5-hydroxy-4-methoxy-4,6-dimethyloxan-2-yl]oxy-2,4,6-trimethylnonanoate

> <PUBCHEM_IUPAC_SYSTEMATIC_NAME>
methyl (2R,3S,4S,5R,6R,8R)-8-azanyl-5-[(2S,3R,4S,6R)-4-(dimethylamino)-6-methyl-3-oxidanyl-oxan-2-yl]oxy-3-[(2R,4R,5S,6S)-4-methoxy-4,6-dimethyl-5-oxidanyl-oxan-2-yl]oxy-2,4,6-trimethyl-6-oxidanyl-nonanoate

> <PUBCHEM_IUPAC_TRADITIONAL_NAME>
(2R,3S,4S,5R,6R,8R)-8-amino-5-[(2S,3R,4S,6R)-4-(dimethylamino)-3-hydroxy-6-methyl-tetrahydropyran-2-yl]oxy-6-hydroxy-3-[(2R,4R,5S,6S)-5-hydroxy-4-methoxy-4,6-dimethyl-tetrahydropyran-2-yl]oxy-2,4,6-trimethyl-pelargonic acid methyl ester

> <PUBCHEM_IUPAC_INCHI>
InChI=1S/C29H56N2O10/c1-15(30)13-28(6,35)25(41-27-22(32)20(31(8)9)12-16(2)38-27)17(3)23(18(4)26(34)36-10)40-21-14-29(7,37-11)24(33)19(5)39-21/h15-25,27,32-33,35H,12-14,30H2,1-11H3/t15-,16-,17+,18-,19+,20+,21+,22-,23+,24+,25-,27+,28-,29-/m1/s1

> <PUBCHEM_IUPAC_INCHIKEY>
CILJBCYZTQLLCN-FNALWZIVSA-N

> <PUBCHEM_XLOGP3_AA>
0.8

> <PUBCHEM_EXACT_MASS>
592.39349599

> <PUBCHEM_MOLECULAR_FORMULA>
C29H56N2O10

> <PUBCHEM_MOLECULAR_WEIGHT>
592.8

> <PUBCHEM_OPENEYE_CAN_SMILES>
CC1CC(C(C(O1)OC(C(C)C(C(C)C(=O)OC)OC2CC(C(C(O2)C)O)(C)OC)C(C)(CC(C)N)O)O)N(C)C

> <PUBCHEM_OPENEYE_ISO_SMILES>
C[C@@H]1C[C@@H]([C@H]([C@@H](O1)O[C@H]([C@@H](C)[C@@H]([C@@H](C)C(=O)OC)O[C@H]2C[C@@]([C@H]([C@@H](O2)C)O)(C)OC)[C@@](C)(C[C@@H](C)N)O)O)N(C)C

> <PUBCHEM_CACTVS_TPSA>
162

> <PUBCHEM_MONOISOTOPIC_WEIGHT>
592.39349599

> <PUBCHEM_TOTAL_CHARGE>
0

> <PUBCHEM_HEAVY_ATOM_COUNT>
41

> <PUBCHEM_ATOM_DEF_STEREO_COUNT>
14

> <PUBCHEM_ATOM_UDEF_STEREO_COUNT>
0

> <PUBCHEM_BOND_DEF_STEREO_COUNT>
0

> <PUBCHEM_BOND_UDEF_STEREO_COUNT>
0

> <PUBCHEM_ISOTOPIC_ATOM_COUNT>
0

> <PUBCHEM_COMPONENT_COUNT>
1

> <PUBCHEM_CACTVS_TAUTO_COUNT>
-1

> <PUBCHEM_COORDINATE_TYPE>
1
5
255

> <PUBCHEM_BONDANNOTATIONS>
13  1  6
18  1  5
24  11  5
31  12  6
14  26  5
16  2  5
19  2  5
22  33  6
27  35  6
30  36  5
15  5  5
17  6  5
23  7  6
25  8  5

$$$$
