 
  -OEChem-10192103442D

 25 25  0     0  0  0  0  0  0999 V2000
    4.5981    1.0600    0.0000 P   0  0  0  0  0  0  0  0  0  0  0  0
    4.5981    2.0600    0.0000 O   0  0  0  0  0  0  0  0  0  0  0  0
    5.5981    1.0600    0.0000 O   0  0  0  0  0  0  0  0  0  0  0  0
    3.5981    1.0600    0.0000 O   0  0  0  0  0  0  0  0  0  0  0  0
    2.0000   -0.4400    0.0000 O   0  5  0  0  0  0  0  0  0  0  0  0
    2.8660    1.0600    0.0000 O   0  0  0  0  0  0  0  0  0  0  0  0
    5.4641   -0.4400    0.0000 N   0  0  0  0  0  0  0  0  0  0  0  0
    2.8660    0.0600    0.0000 N   0  3  0  0  0  0  0  0  0  0  0  0
    4.5981   -1.9400    0.0000 N   0  0  0  0  0  0  0  0  0  0  0  0
    2.8660   -1.9400    0.0000 N   0  0  0  0  0  0  0  0  0  0  0  0
    4.5981    0.0600    0.0000 C   0  0  0  0  0  0  0  0  0  0  0  0
    3.7320   -0.4400    0.0000 C   0  0  0  0  0  0  0  0  0  0  0  0
    3.7320   -1.4400    0.0000 C   0  0  0  0  0  0  0  0  0  0  0  0
    5.4641   -1.4400    0.0000 C   0  0  0  0  0  0  0  0  0  0  0  0
    5.4641    2.5600    0.0000 C   0  0  0  0  0  0  0  0  0  0  0  0
    6.0981    1.9260    0.0000 C   0  0  0  0  0  0  0  0  0  0  0  0
    6.0010   -1.7500    0.0000 H   0  0  0  0  0  0  0  0  0  0  0  0
    5.7741    2.0231    0.0000 H   0  0  0  0  0  0  0  0  0  0  0  0
    6.0010    2.8700    0.0000 H   0  0  0  0  0  0  0  0  0  0  0  0
    5.1541    3.0969    0.0000 H   0  0  0  0  0  0  0  0  0  0  0  0
    6.6350    1.6160    0.0000 H   0  0  0  0  0  0  0  0  0  0  0  0
    6.4081    2.4630    0.0000 H   0  0  0  0  0  0  0  0  0  0  0  0
    5.5611    2.2360    0.0000 H   0  0  0  0  0  0  0  0  0  0  0  0
    2.8660   -2.5600    0.0000 H   0  0  0  0  0  0  0  0  0  0  0  0
    2.3291   -1.6300    0.0000 H   0  0  0  0  0  0  0  0  0  0  0  0
  1  2  1  0  0  0  0
  1  3  1  0  0  0  0
  1  4  2  0  0  0  0
  1 11  1  0  0  0  0
  2 15  1  0  0  0  0
  3 16  1  0  0  0  0
  5  8  1  0  0  0  0
  6  8  2  0  0  0  0
  7 11  2  0  0  0  0
  7 14  1  0  0  0  0
  8 12  1  0  0  0  0
  9 13  1  0  0  0  0
  9 14  2  0  0  0  0
 10 13  1  0  0  0  0
 10 24  1  0  0  0  0
 10 25  1  0  0  0  0
 11 12  1  0  0  0  0
 12 13  2  0  0  0  0
 14 17  1  0  0  0  0
 15 18  1  0  0  0  0
 15 19  1  0  0  0  0
 15 20  1  0  0  0  0
 16 21  1  0  0  0  0
 16 22  1  0  0  0  0
 16 23  1  0  0  0  0
M  CHG  2   5  -1   8   1
M  END
> <PUBCHEM_COMPOUND_CID>
3055774

> <PUBCHEM_COMPOUND_CANONICALIZED>
1

> <PUBCHEM_CACTVS_COMPLEXITY>
300

> <PUBCHEM_CACTVS_HBOND_ACCEPTOR>
8

> <PUBCHEM_CACTVS_HBOND_DONOR>
1

> <PUBCHEM_CACTVS_ROTATABLE_BOND>
3

> <PUBCHEM_CACTVS_SUBSKEYS>
AAADccBjuAIAAAAAAAAAAAAAAAAAAAAAAAAsAAAAAAAAAAABgAAAHggUACAACAgBEgYH8JZYURChQAZhZ4CAgCkREKAhUCAoVBKASABASEAUBAgIAIJAACAAAAAAAAAAAAAAAAAAAAAAAAAAAAAAAAAAAA==

> <PUBCHEM_IUPAC_OPENEYE_NAME>
6-dimethoxyphosphoryl-5-nitro-pyrimidin-4-amine

> <PUBCHEM_IUPAC_CAS_NAME>
6-dimethoxyphosphoryl-5-nitro-4-pyrimidinamine

> <PUBCHEM_IUPAC_NAME_MARKUP>
6-dimethoxyphosphoryl-5-nitropyrimidin-4-amine

> <PUBCHEM_IUPAC_NAME>
6-dimethoxyphosphoryl-5-nitropyrimidin-4-amine

> <PUBCHEM_IUPAC_SYSTEMATIC_NAME>
6-dimethoxyphosphoryl-5-nitro-pyrimidin-4-amine

> <PUBCHEM_IUPAC_TRADITIONAL_NAME>
(6-dimethoxyphosphoryl-5-nitro-pyrimidin-4-yl)amine

> <PUBCHEM_IUPAC_INCHI>
InChI=1S/C6H9N4O5P/c1-14-16(13,15-2)6-4(10(11)12)5(7)8-3-9-6/h3H,1-2H3,(H2,7,8,9)

> <PUBCHEM_IUPAC_INCHIKEY>
BSDBYSKGESWCFF-UHFFFAOYSA-N

> <PUBCHEM_XLOGP3_AA>
-0.3

> <PUBCHEM_EXACT_MASS>
248.03105640

> <PUBCHEM_MOLECULAR_FORMULA>
C6H9N4O5P

> <PUBCHEM_MOLECULAR_WEIGHT>
248.13

> <PUBCHEM_OPENEYE_CAN_SMILES>
COP(=O)(C1=NC=NC(=C1[N+](=O)[O-])N)OC

> <PUBCHEM_OPENEYE_ISO_SMILES>
COP(=O)(C1=NC=NC(=C1[N+](=O)[O-])N)OC

> <PUBCHEM_CACTVS_TPSA>
133

> <PUBCHEM_MONOISOTOPIC_WEIGHT>
248.03105640

> <PUBCHEM_TOTAL_CHARGE>
0

> <PUBCHEM_HEAVY_ATOM_COUNT>
16

> <PUBCHEM_ATOM_DEF_STEREO_COUNT>
0

> <PUBCHEM_ATOM_UDEF_STEREO_COUNT>
0

> <PUBCHEM_BOND_DEF_STEREO_COUNT>
0

> <PUBCHEM_BOND_UDEF_STEREO_COUNT>
0

> <PUBCHEM_ISOTOPIC_ATOM_COUNT>
0

> <PUBCHEM_COMPONENT_COUNT>
1

> <PUBCHEM_CACTVS_TAUTO_COUNT>
3

> <PUBCHEM_COORDINATE_TYPE>
1
5
255

> <PUBCHEM_BONDANNOTATIONS>
11  12  8
12  13  8
7  11  8
7  14  8
9  13  8
9  14  8

$$$$
