 
  -OEChem-10192103332D

 63 63  0     1  0  0  0  0  0999 V2000
    8.9282    3.1900    0.0000 O   0  0  0  0  0  0  0  0  0  0  0  0
    5.4641    0.1900    0.0000 O   0  0  0  0  0  0  0  0  0  0  0  0
    6.3301    0.6900    0.0000 O   0  0  0  0  0  0  0  0  0  0  0  0
    5.4641   -0.8100    0.0000 O   0  0  0  0  0  0  0  0  0  0  0  0
    4.5981   -2.3100    0.0000 O   0  0  0  0  0  0  0  0  0  0  0  0
    4.5981    3.6900    0.0000 O   0  0  0  0  0  0  0  0  0  0  0  0
    3.7320    0.1900    0.0000 N   0  0  0  0  0  0  0  0  0  0  0  0
    5.4641    2.1900    0.0000 N   0  0  0  0  0  0  0  0  0  0  0  0
   10.6603    2.1900    0.0000 N   0  0  0  0  0  0  0  0  0  0  0  0
    8.0622    1.6900    0.0000 N   0  0  0  0  0  0  0  0  0  0  0  0
    2.8660    3.6900    0.0000 N   0  0  0  0  0  0  0  0  0  0  0  0
   10.6603    0.1900    0.0000 C   0  0  0  0  0  0  0  0  0  0  0  0
    9.7942    0.6900    0.0000 C   0  0  0  0  0  0  0  0  0  0  0  0
    9.7942    1.6900    0.0000 C   0  0  3  0  0  0  0  0  0  0  0  0
    4.5981    1.6900    0.0000 C   0  0  3  0  0  0  0  0  0  0  0  0
   10.6603   -0.8100    0.0000 C   0  0  0  0  0  0  0  0  0  0  0  0
   11.5263    0.6900    0.0000 C   0  0  0  0  0  0  0  0  0  0  0  0
    3.7320   -0.8100    0.0000 C   0  0  3  0  0  0  0  0  0  0  0  0
    8.9282    2.1900    0.0000 C   0  0  0  0  0  0  0  0  0  0  0  0
    2.8660   -1.3100    0.0000 C   0  0  0  0  0  0  0  0  0  0  0  0
    4.5981    0.6900    0.0000 C   0  0  0  0  0  0  0  0  0  0  0  0
    3.7320    2.1900    0.0000 C   0  0  0  0  0  0  0  0  0  0  0  0
    7.1962    2.1900    0.0000 C   0  0  0  0  0  0  0  0  0  0  0  0
    6.3301    1.6900    0.0000 C   0  0  0  0  0  0  0  0  0  0  0  0
    2.8660   -2.3100    0.0000 C   0  0  0  0  0  0  0  0  0  0  0  0
    4.5981   -1.3100    0.0000 C   0  0  0  0  0  0  0  0  0  0  0  0
    3.7320    3.1900    0.0000 C   0  0  0  0  0  0  0  0  0  0  0  0
    3.7320   -2.8100    0.0000 C   0  0  0  0  0  0  0  0  0  0  0  0
    2.0000   -2.8100    0.0000 C   0  0  0  0  0  0  0  0  0  0  0  0
    3.7320   -3.8100    0.0000 C   0  0  0  0  0  0  0  0  0  0  0  0
    2.0000   -3.8100    0.0000 C   0  0  0  0  0  0  0  0  0  0  0  0
    2.8660   -4.3100    0.0000 C   0  0  0  0  0  0  0  0  0  0  0  0
   11.1972   -0.1200    0.0000 H   0  0  0  0  0  0  0  0  0  0  0  0
    9.1836    0.7977    0.0000 H   0  0  0  0  0  0  0  0  0  0  0  0
    9.5822    0.1074    0.0000 H   0  0  0  0  0  0  0  0  0  0  0  0
    9.7942    2.3100    0.0000 H   0  0  0  0  0  0  0  0  0  0  0  0
    4.5981    2.3100    0.0000 H   0  0  0  0  0  0  0  0  0  0  0  0
   10.0403   -0.8100    0.0000 H   0  0  0  0  0  0  0  0  0  0  0  0
   10.6603   -1.4300    0.0000 H   0  0  0  0  0  0  0  0  0  0  0  0
   11.2803   -0.8100    0.0000 H   0  0  0  0  0  0  0  0  0  0  0  0
   11.8363    0.1531    0.0000 H   0  0  0  0  0  0  0  0  0  0  0  0
   12.0632    1.0000    0.0000 H   0  0  0  0  0  0  0  0  0  0  0  0
   11.2163    1.2269    0.0000 H   0  0  0  0  0  0  0  0  0  0  0  0
    4.2690   -0.5000    0.0000 H   0  0  0  0  0  0  0  0  0  0  0  0
    2.6540   -0.7274    0.0000 H   0  0  0  0  0  0  0  0  0  0  0  0
    2.2554   -1.4177    0.0000 H   0  0  0  0  0  0  0  0  0  0  0  0
    3.1215    2.2977    0.0000 H   0  0  0  0  0  0  0  0  0  0  0  0
    3.5200    1.6074    0.0000 H   0  0  0  0  0  0  0  0  0  0  0  0
    3.1951    0.5000    0.0000 H   0  0  0  0  0  0  0  0  0  0  0  0
    5.4641    2.8100    0.0000 H   0  0  0  0  0  0  0  0  0  0  0  0
   11.1972    1.8800    0.0000 H   0  0  0  0  0  0  0  0  0  0  0  0
   10.6603    2.8100    0.0000 H   0  0  0  0  0  0  0  0  0  0  0  0
    7.5947    2.6650    0.0000 H   0  0  0  0  0  0  0  0  0  0  0  0
    6.7976    2.6650    0.0000 H   0  0  0  0  0  0  0  0  0  0  0  0
    8.0622    1.0700    0.0000 H   0  0  0  0  0  0  0  0  0  0  0  0
    4.2690   -2.5000    0.0000 H   0  0  0  0  0  0  0  0  0  0  0  0
    1.4631   -2.5000    0.0000 H   0  0  0  0  0  0  0  0  0  0  0  0
    4.2690   -4.1200    0.0000 H   0  0  0  0  0  0  0  0  0  0  0  0
    1.4631   -4.1200    0.0000 H   0  0  0  0  0  0  0  0  0  0  0  0
    2.8660   -4.9300    0.0000 H   0  0  0  0  0  0  0  0  0  0  0  0
    2.8660    4.3100    0.0000 H   0  0  0  0  0  0  0  0  0  0  0  0
    2.3291    3.3800    0.0000 H   0  0  0  0  0  0  0  0  0  0  0  0
    6.0010   -1.1200    0.0000 H   0  0  0  0  0  0  0  0  0  0  0  0
  1 19  2  0  0  0  0
  2 21  2  0  0  0  0
  3 24  2  0  0  0  0
  4 26  1  0  0  0  0
  4 63  1  0  0  0  0
  5 26  2  0  0  0  0
  6 27  2  0  0  0  0
  7 18  1  0  0  0  0
  7 21  1  0  0  0  0
  7 49  1  0  0  0  0
  8 15  1  0  0  0  0
  8 24  1  0  0  0  0
  8 50  1  0  0  0  0
  9 14  1  0  0  0  0
  9 51  1  0  0  0  0
  9 52  1  0  0  0  0
 10 19  1  0  0  0  0
 10 23  1  0  0  0  0
 10 55  1  0  0  0  0
 11 27  1  0  0  0  0
 11 61  1  0  0  0  0
 11 62  1  0  0  0  0
 12 13  1  0  0  0  0
 12 16  1  0  0  0  0
 12 17  1  0  0  0  0
 12 33  1  0  0  0  0
 13 14  1  0  0  0  0
 13 34  1  0  0  0  0
 13 35  1  0  0  0  0
 14 19  1  0  0  0  0
 14 36  1  0  0  0  0
 15 21  1  0  0  0  0
 15 22  1  0  0  0  0
 15 37  1  0  0  0  0
 16 38  1  0  0  0  0
 16 39  1  0  0  0  0
 16 40  1  0  0  0  0
 17 41  1  0  0  0  0
 17 42  1  0  0  0  0
 17 43  1  0  0  0  0
 18 20  1  0  0  0  0
 18 26  1  0  0  0  0
 18 44  1  0  0  0  0
 20 25  1  0  0  0  0
 20 45  1  0  0  0  0
 20 46  1  0  0  0  0
 22 27  1  0  0  0  0
 22 47  1  0  0  0  0
 22 48  1  0  0  0  0
 23 24  1  0  0  0  0
 23 53  1  0  0  0  0
 23 54  1  0  0  0  0
 25 28  2  0  0  0  0
 25 29  1  0  0  0  0
 28 30  1  0  0  0  0
 28 56  1  0  0  0  0
 29 31  2  0  0  0  0
 29 57  1  0  0  0  0
 30 32  2  0  0  0  0
 30 58  1  0  0  0  0
 31 32  1  0  0  0  0
 31 59  1  0  0  0  0
 32 60  1  0  0  0  0
M  END
> <PUBCHEM_COMPOUND_CID>
22705279

> <PUBCHEM_COMPOUND_CANONICALIZED>
1

> <PUBCHEM_CACTVS_COMPLEXITY>
678

> <PUBCHEM_CACTVS_HBOND_ACCEPTOR>
7

> <PUBCHEM_CACTVS_HBOND_DONOR>
6

> <PUBCHEM_CACTVS_ROTATABLE_BOND>
13

> <PUBCHEM_CACTVS_SUBSKEYS>
AAADceB7uAAAAAAAAAAAAAAAAAAAAAAAAAAwAAAAAAAAAAABAAAAHgAQCAAADSjBmAQyCILAAgCIAiHSGAACAAAgAAAIiIGIAIgKYDqA0TGUYAAklgCYiAedyKCOAAAAAAAAAAAAAAAAAAAAAAAAAAAAAA==

> <PUBCHEM_IUPAC_OPENEYE_NAME>
2-[[4-amino-2-[[2-[(2-amino-4-methyl-pentanoyl)amino]acetyl]amino]-4-oxo-butanoyl]amino]-3-phenyl-propanoic acid

> <PUBCHEM_IUPAC_CAS_NAME>
2-[[4-amino-2-[[2-[(2-amino-4-methyl-1-oxopentyl)amino]-1-oxoethyl]amino]-1,4-dioxobutyl]amino]-3-phenylpropanoic acid

> <PUBCHEM_IUPAC_NAME_MARKUP>
2-[[4-amino-2-[[2-[(2-amino-4-methylpentanoyl)amino]acetyl]amino]-4-oxobutanoyl]amino]-3-phenylpropanoic acid

> <PUBCHEM_IUPAC_NAME>
2-[[4-amino-2-[[2-[(2-amino-4-methylpentanoyl)amino]acetyl]amino]-4-oxobutanoyl]amino]-3-phenylpropanoic acid

> <PUBCHEM_IUPAC_SYSTEMATIC_NAME>
2-[[4-azanyl-2-[2-[(2-azanyl-4-methyl-pentanoyl)amino]ethanoylamino]-4-oxidanylidene-butanoyl]amino]-3-phenyl-propanoic acid

> <PUBCHEM_IUPAC_TRADITIONAL_NAME>
2-[[4-amino-2-[[2-[(2-amino-4-methyl-pentanoyl)amino]acetyl]amino]-4-keto-butanoyl]amino]-3-phenyl-propionic acid

> <PUBCHEM_IUPAC_INCHI>
InChI=1S/C21H31N5O6/c1-12(2)8-14(22)19(29)24-11-18(28)25-15(10-17(23)27)20(30)26-16(21(31)32)9-13-6-4-3-5-7-13/h3-7,12,14-16H,8-11,22H2,1-2H3,(H2,23,27)(H,24,29)(H,25,28)(H,26,30)(H,31,32)

> <PUBCHEM_IUPAC_INCHIKEY>
HEXYQJPKTLYNCO-UHFFFAOYSA-N

> <PUBCHEM_XLOGP3>
-3.3

> <PUBCHEM_EXACT_MASS>
449.22743373

> <PUBCHEM_MOLECULAR_FORMULA>
C21H31N5O6

> <PUBCHEM_MOLECULAR_WEIGHT>
449.5

> <PUBCHEM_OPENEYE_CAN_SMILES>
CC(C)CC(C(=O)NCC(=O)NC(CC(=O)N)C(=O)NC(CC1=CC=CC=C1)C(=O)O)N

> <PUBCHEM_OPENEYE_ISO_SMILES>
CC(C)CC(C(=O)NCC(=O)NC(CC(=O)N)C(=O)NC(CC1=CC=CC=C1)C(=O)O)N

> <PUBCHEM_CACTVS_TPSA>
194

> <PUBCHEM_MONOISOTOPIC_WEIGHT>
449.22743373

> <PUBCHEM_TOTAL_CHARGE>
0

> <PUBCHEM_HEAVY_ATOM_COUNT>
32

> <PUBCHEM_ATOM_DEF_STEREO_COUNT>
0

> <PUBCHEM_ATOM_UDEF_STEREO_COUNT>
3

> <PUBCHEM_BOND_DEF_STEREO_COUNT>
0

> <PUBCHEM_BOND_UDEF_STEREO_COUNT>
0

> <PUBCHEM_ISOTOPIC_ATOM_COUNT>
0

> <PUBCHEM_COMPONENT_COUNT>
1

> <PUBCHEM_CACTVS_TAUTO_COUNT>
-1

> <PUBCHEM_COORDINATE_TYPE>
1
5
255

> <PUBCHEM_BONDANNOTATIONS>
15  22  3
18  20  3
25  28  8
25  29  8
28  30  8
29  31  8
30  32  8
31  32  8
14  9  3

$$$$
