 
  -OEChem-10192104302D

 31 30  0     0  0  0  0  0  0999 V2000
    5.4641    0.2010    0.0000 S   0  0  0  0  0  0  0  0  0  0  0  0
    4.5981   -0.2990    0.0000 P   0  0  0  0  0  0  0  0  0  0  0  0
    3.7320   -0.7990    0.0000 O   0  0  0  0  0  0  0  0  0  0  0  0
    4.0981    0.5670    0.0000 O   0  0  0  0  0  0  0  0  0  0  0  0
    5.0981   -1.1651    0.0000 O   0  0  0  0  0  0  0  0  0  0  0  0
    8.9282   -0.7990    0.0000 O   0  0  0  0  0  0  0  0  0  0  0  0
    9.7942   -2.2990    0.0000 O   0  0  0  0  0  0  0  0  0  0  0  0
    2.8660   -0.2990    0.0000 C   0  0  0  0  0  0  0  0  0  0  0  0
    4.5981    1.4330    0.0000 C   0  0  0  0  0  0  0  0  0  0  0  0
    2.0000   -0.7990    0.0000 C   0  0  0  0  0  0  0  0  0  0  0  0
    4.0981    2.2990    0.0000 C   0  0  0  0  0  0  0  0  0  0  0  0
    6.3301   -0.2990    0.0000 C   0  0  0  0  0  0  0  0  0  0  0  0
    8.0622   -1.2990    0.0000 C   0  0  0  0  0  0  0  0  0  0  0  0
    7.1962   -0.7990    0.0000 C   0  0  0  0  0  0  0  0  0  0  0  0
    9.7942   -1.2990    0.0000 C   0  0  0  0  0  0  0  0  0  0  0  0
   10.6603   -0.7990    0.0000 C   0  0  0  0  0  0  0  0  0  0  0  0
    3.2646    0.1759    0.0000 H   0  0  0  0  0  0  0  0  0  0  0  0
    2.4675    0.1759    0.0000 H   0  0  0  0  0  0  0  0  0  0  0  0
    5.0730    1.0345    0.0000 H   0  0  0  0  0  0  0  0  0  0  0  0
    5.0730    1.8315    0.0000 H   0  0  0  0  0  0  0  0  0  0  0  0
    1.6900   -0.2621    0.0000 H   0  0  0  0  0  0  0  0  0  0  0  0
    1.4631   -1.1090    0.0000 H   0  0  0  0  0  0  0  0  0  0  0  0
    2.3100   -1.3360    0.0000 H   0  0  0  0  0  0  0  0  0  0  0  0
    4.6350    2.6090    0.0000 H   0  0  0  0  0  0  0  0  0  0  0  0
    3.7881    2.8360    0.0000 H   0  0  0  0  0  0  0  0  0  0  0  0
    3.5611    1.9890    0.0000 H   0  0  0  0  0  0  0  0  0  0  0  0
    7.6636   -1.7740    0.0000 H   0  0  0  0  0  0  0  0  0  0  0  0
    8.4607   -1.7740    0.0000 H   0  0  0  0  0  0  0  0  0  0  0  0
   10.9703   -1.3360    0.0000 H   0  0  0  0  0  0  0  0  0  0  0  0
   11.1972   -0.4890    0.0000 H   0  0  0  0  0  0  0  0  0  0  0  0
   10.3503   -0.2621    0.0000 H   0  0  0  0  0  0  0  0  0  0  0  0
  1  2  1  0  0  0  0
  1 12  1  0  0  0  0
  2  3  1  0  0  0  0
  2  4  1  0  0  0  0
  2  5  2  0  0  0  0
  3  8  1  0  0  0  0
  4  9  1  0  0  0  0
  6 13  1  0  0  0  0
  6 15  1  0  0  0  0
  7 15  2  0  0  0  0
  8 10  1  0  0  0  0
  8 17  1  0  0  0  0
  8 18  1  0  0  0  0
  9 11  1  0  0  0  0
  9 19  1  0  0  0  0
  9 20  1  0  0  0  0
 10 21  1  0  0  0  0
 10 22  1  0  0  0  0
 10 23  1  0  0  0  0
 11 24  1  0  0  0  0
 11 25  1  0  0  0  0
 11 26  1  0  0  0  0
 12 14  3  0  0  0  0
 13 14  1  0  0  0  0
 13 27  1  0  0  0  0
 13 28  1  0  0  0  0
 15 16  1  0  0  0  0
 16 29  1  0  0  0  0
 16 30  1  0  0  0  0
 16 31  1  0  0  0  0
M  END
> <PUBCHEM_COMPOUND_CID>
159144

> <PUBCHEM_COMPOUND_CANONICALIZED>
1

> <PUBCHEM_CACTVS_COMPLEXITY>
319

> <PUBCHEM_CACTVS_HBOND_ACCEPTOR>
6

> <PUBCHEM_CACTVS_HBOND_DONOR>
0

> <PUBCHEM_CACTVS_ROTATABLE_BOND>
8

> <PUBCHEM_CACTVS_SUBSKEYS>
AAADccBwOAJAAAAAAAAAAAAAAAAAAAAAAAAAAAAAAAAAAAAAAAAAGgQAACAACACgwAICCAAABRBIUACQCIAAAAAAAAAAAAAAAAAAAAAAAAACAAAAAAAAAAAAAAAAAAAAAAAAAAAAAAAAAAAAAAAAAAAAAA==

> <PUBCHEM_IUPAC_OPENEYE_NAME>
3-diethoxyphosphorylsulfanylprop-2-ynyl acetate

> <PUBCHEM_IUPAC_CAS_NAME>
acetic acid 3-(diethoxyphosphorylthio)prop-2-ynyl ester

> <PUBCHEM_IUPAC_NAME_MARKUP>
3-diethoxyphosphorylsulfanylprop-2-ynyl acetate

> <PUBCHEM_IUPAC_NAME>
3-diethoxyphosphorylsulfanylprop-2-ynyl acetate

> <PUBCHEM_IUPAC_SYSTEMATIC_NAME>
3-diethoxyphosphorylsulfanylprop-2-ynyl ethanoate

> <PUBCHEM_IUPAC_TRADITIONAL_NAME>
acetic acid 3-(diethoxyphosphorylthio)prop-2-ynyl ester

> <PUBCHEM_IUPAC_INCHI>
InChI=1S/C9H15O5PS/c1-4-13-15(11,14-5-2)16-8-6-7-12-9(3)10/h4-5,7H2,1-3H3

> <PUBCHEM_IUPAC_INCHIKEY>
BDQXHOKGNCXDMT-UHFFFAOYSA-N

> <PUBCHEM_XLOGP3_AA>
0.9

> <PUBCHEM_EXACT_MASS>
266.03778175

> <PUBCHEM_MOLECULAR_FORMULA>
C9H15O5PS

> <PUBCHEM_MOLECULAR_WEIGHT>
266.25

> <PUBCHEM_OPENEYE_CAN_SMILES>
CCOP(=O)(OCC)SC#CCOC(=O)C

> <PUBCHEM_OPENEYE_ISO_SMILES>
CCOP(=O)(OCC)SC#CCOC(=O)C

> <PUBCHEM_CACTVS_TPSA>
87.1

> <PUBCHEM_MONOISOTOPIC_WEIGHT>
266.03778175

> <PUBCHEM_TOTAL_CHARGE>
0

> <PUBCHEM_HEAVY_ATOM_COUNT>
16

> <PUBCHEM_ATOM_DEF_STEREO_COUNT>
0

> <PUBCHEM_ATOM_UDEF_STEREO_COUNT>
0

> <PUBCHEM_BOND_DEF_STEREO_COUNT>
0

> <PUBCHEM_BOND_UDEF_STEREO_COUNT>
0

> <PUBCHEM_ISOTOPIC_ATOM_COUNT>
0

> <PUBCHEM_COMPONENT_COUNT>
1

> <PUBCHEM_CACTVS_TAUTO_COUNT>
1

> <PUBCHEM_COORDINATE_TYPE>
1
5
255

$$$$
