 
  -OEChem-10192103352D

 29 30  0     1  0  0  0  0  0999 V2000
    7.7573    1.2532    0.0000 O   0  0  0  0  0  0  0  0  0  0  0  0
    9.0309   -1.0039    0.0000 O   0  0  0  0  0  0  0  0  0  0  0  0
    9.0309    0.7281    0.0000 O   0  0  0  0  0  0  0  0  0  0  0  0
    2.5369    0.3621    0.0000 O   0  0  0  0  0  0  0  0  0  0  0  0
    3.4030    1.8621    0.0000 O   0  4  0  0  0  0  0  0  0  0  0  0
    6.9473    0.6668    0.0000 N   0  3  3  0  0  0  0  0  0  0  0  0
    6.9473   -0.9426    0.0000 N   0  0  0  0  0  0  0  0  0  0  0  0
    3.4030    0.8621    0.0000 N   0  0  3  0  0  0  0  0  0  0  0  0
    6.0010    0.3621    0.0000 C   0  0  0  0  0  0  0  0  0  0  0  0
    6.0010   -0.6379    0.0000 C   0  0  0  0  0  0  0  0  0  0  0  0
    7.5309   -0.1379    0.0000 C   0  0  0  0  0  0  0  0  0  0  0  0
    5.1350    0.8621    0.0000 C   0  0  0  0  0  0  0  0  0  0  0  0
    5.1350   -1.1379    0.0000 C   0  0  0  0  0  0  0  0  0  0  0  0
    4.2690    0.3621    0.0000 C   0  0  0  0  0  0  0  0  0  0  0  0
    4.2690   -0.6379    0.0000 C   0  0  0  0  0  0  0  0  0  0  0  0
    8.5309   -0.1379    0.0000 C   0  0  0  0  0  0  0  0  0  0  0  0
   10.0309   -1.0039    0.0000 C   0  0  0  0  0  0  0  0  0  0  0  0
   10.5309   -1.8699    0.0000 C   0  0  0  0  0  0  0  0  0  0  0  0
    6.7567    1.2568    0.0000 H   0  0  0  0  0  0  0  0  0  0  0  0
    5.1350    1.4821    0.0000 H   0  0  0  0  0  0  0  0  0  0  0  0
    5.1350   -1.7579    0.0000 H   0  0  0  0  0  0  0  0  0  0  0  0
    3.7320   -0.9479    0.0000 H   0  0  0  0  0  0  0  0  0  0  0  0
    7.6936    1.8699    0.0000 H   0  0  0  0  0  0  0  0  0  0  0  0
   10.6135   -0.7919    0.0000 H   0  0  0  0  0  0  0  0  0  0  0  0
    9.9232   -0.3933    0.0000 H   0  0  0  0  0  0  0  0  0  0  0  0
    9.9939   -2.1799    0.0000 H   0  0  0  0  0  0  0  0  0  0  0  0
   10.8409   -2.4069    0.0000 H   0  0  0  0  0  0  0  0  0  0  0  0
   11.0678   -1.5599    0.0000 H   0  0  0  0  0  0  0  0  0  0  0  0
    2.0000    0.6721    0.0000 H   0  0  0  0  0  0  0  0  0  0  0  0
  1  6  1  0  0  0  0
  1 23  1  0  0  0  0
  2 16  1  0  0  0  0
  2 17  1  0  0  0  0
  3 16  2  0  0  0  0
  4  8  1  0  0  0  0
  4 29  1  0  0  0  0
  5  8  1  0  0  0  0
  6  9  1  0  0  0  0
  6 11  1  0  0  0  0
  6 19  1  0  0  0  0
  7 10  1  0  0  0  0
  7 11  2  0  0  0  0
  8 14  1  0  0  0  0
  9 10  2  0  0  0  0
  9 12  1  0  0  0  0
 10 13  1  0  0  0  0
 11 16  1  0  0  0  0
 12 14  2  0  0  0  0
 12 20  1  0  0  0  0
 13 15  2  0  0  0  0
 13 21  1  0  0  0  0
 14 15  1  0  0  0  0
 15 22  1  0  0  0  0
 17 18  1  0  0  0  0
 17 24  1  0  0  0  0
 17 25  1  0  0  0  0
 18 26  1  0  0  0  0
 18 27  1  0  0  0  0
 18 28  1  0  0  0  0
M  CHG  1   6   1
M  RAD  1   5   2
M  END
> <PUBCHEM_COMPOUND_CID>
101370113

> <PUBCHEM_COMPOUND_CANONICALIZED>
1

> <PUBCHEM_CACTVS_COMPLEXITY>
361

> <PUBCHEM_CACTVS_HBOND_ACCEPTOR>
6

> <PUBCHEM_CACTVS_HBOND_DONOR>
3

> <PUBCHEM_CACTVS_ROTATABLE_BOND>
4

> <PUBCHEM_CACTVS_SUBSKEYS>
AAADccBzOAAAAAAAAAAAAAAAAAAAAQAAAAAwAAAAAAAAAEABAAAAHgAUCAAACAihkAIzyILQRACoACbybASCAAEhAgApiACAdIgKYCLA2fGXIAhgkADYyAcQAAAAAACAAAQAACAAAQAACAAAQAAAAAAAAA==

> <PUBCHEM_IUPAC_INCHI>
InChI=1S/C10H10N3O5/c1-2-18-10(14)9-11-7-4-3-6(13(16)17)5-8(7)12(9)15/h3-5,15-16H,2H2,1H3/p+1

> <PUBCHEM_IUPAC_INCHIKEY>
BDCVZVOVIBHARK-UHFFFAOYSA-O

> <PUBCHEM_XLOGP3_AA>
0.9

> <PUBCHEM_EXACT_MASS>
253.06987046

> <PUBCHEM_MOLECULAR_FORMULA>
C10H11N3O5+

> <PUBCHEM_MOLECULAR_WEIGHT>
253.21

> <PUBCHEM_OPENEYE_CAN_SMILES>
CCOC(=O)C1=NC2=C([NH+]1O)C=C(C=C2)N(O)[O]

> <PUBCHEM_OPENEYE_ISO_SMILES>
CCOC(=O)C1=NC2=C([NH+]1O)C=C(C=C2)N(O)[O]

> <PUBCHEM_CACTVS_TPSA>
87.8

> <PUBCHEM_MONOISOTOPIC_WEIGHT>
253.06987046

> <PUBCHEM_TOTAL_CHARGE>
1

> <PUBCHEM_HEAVY_ATOM_COUNT>
18

> <PUBCHEM_ATOM_DEF_STEREO_COUNT>
0

> <PUBCHEM_ATOM_UDEF_STEREO_COUNT>
0

> <PUBCHEM_BOND_DEF_STEREO_COUNT>
0

> <PUBCHEM_BOND_UDEF_STEREO_COUNT>
0

> <PUBCHEM_ISOTOPIC_ATOM_COUNT>
0

> <PUBCHEM_COMPONENT_COUNT>
1

> <PUBCHEM_CACTVS_TAUTO_COUNT>
-1

> <PUBCHEM_COORDINATE_TYPE>
1
5
255

> <PUBCHEM_BONDANNOTATIONS>
10  13  8
12  14  8
13  15  8
14  15  8
9  10  8
9  12  8

$$$$
