 
  -OEChem-10192103552D

 56 55  0     1  0  0  0  0  0999 V2000
   10.3312    1.7500    0.0000 O   0  0  0  0  0  0  0  0  0  0  0  0
   11.1972   -0.7500    0.0000 O   0  0  0  0  0  0  0  0  0  0  0  0
   12.0632    1.7500    0.0000 O   0  0  0  0  0  0  0  0  0  0  0  0
   14.6613   -1.7500    0.0000 O   0  0  0  0  0  0  0  0  0  0  0  0
    2.5369    0.2500    0.0000 O   0  0  0  0  0  0  0  0  0  0  0  0
    3.4030    1.7500    0.0000 O   0  0  0  0  0  0  0  0  0  0  0  0
    9.4651    0.2500    0.0000 C   0  0  0  0  0  0  0  0  0  0  0  0
    8.5991    0.7500    0.0000 C   0  0  0  0  0  0  0  0  0  0  0  0
   10.3312    0.7500    0.0000 C   0  0  3  0  0  0  0  0  0  0  0  0
    7.7331    0.2500    0.0000 C   0  0  0  0  0  0  0  0  0  0  0  0
    6.8671    0.7500    0.0000 C   0  0  0  0  0  0  0  0  0  0  0  0
   11.1972    0.2500    0.0000 C   0  0  3  0  0  0  0  0  0  0  0  0
    6.0010    0.2500    0.0000 C   0  0  0  0  0  0  0  0  0  0  0  0
   12.0632    0.7500    0.0000 C   0  0  3  0  0  0  0  0  0  0  0  0
    5.1350    0.7500    0.0000 C   0  0  0  0  0  0  0  0  0  0  0  0
    4.2690    0.2500    0.0000 C   0  0  0  0  0  0  0  0  0  0  0  0
   15.5273   -0.2500    0.0000 C   0  0  0  0  0  0  0  0  0  0  0  0
   12.9292    0.2500    0.0000 C   0  0  0  0  0  0  0  0  0  0  0  0
   16.3933   -0.7500    0.0000 C   0  0  0  0  0  0  0  0  0  0  0  0
   14.6613   -0.7500    0.0000 C   0  0  3  0  0  0  0  0  0  0  0  0
   17.2594   -0.2500    0.0000 C   0  0  0  0  0  0  0  0  0  0  0  0
   13.7953   -0.2500    0.0000 C   0  0  0  0  0  0  0  0  0  0  0  0
    3.4030    0.7500    0.0000 C   0  0  0  0  0  0  0  0  0  0  0  0
   18.1254   -0.7500    0.0000 C   0  0  0  0  0  0  0  0  0  0  0  0
    9.0666   -0.2249    0.0000 H   0  0  0  0  0  0  0  0  0  0  0  0
    9.8637   -0.2249    0.0000 H   0  0  0  0  0  0  0  0  0  0  0  0
    8.9976    1.2250    0.0000 H   0  0  0  0  0  0  0  0  0  0  0  0
    8.2006    1.2250    0.0000 H   0  0  0  0  0  0  0  0  0  0  0  0
   10.8681    1.0600    0.0000 H   0  0  0  0  0  0  0  0  0  0  0  0
    7.3346   -0.2249    0.0000 H   0  0  0  0  0  0  0  0  0  0  0  0
    8.1316   -0.2249    0.0000 H   0  0  0  0  0  0  0  0  0  0  0  0
    7.2656    1.2250    0.0000 H   0  0  0  0  0  0  0  0  0  0  0  0
    6.4685    1.2250    0.0000 H   0  0  0  0  0  0  0  0  0  0  0  0
   10.6603   -0.0600    0.0000 H   0  0  0  0  0  0  0  0  0  0  0  0
    5.6025   -0.2249    0.0000 H   0  0  0  0  0  0  0  0  0  0  0  0
    6.3996   -0.2249    0.0000 H   0  0  0  0  0  0  0  0  0  0  0  0
   12.6002    1.0600    0.0000 H   0  0  0  0  0  0  0  0  0  0  0  0
    5.5335    1.2250    0.0000 H   0  0  0  0  0  0  0  0  0  0  0  0
    4.7365    1.2250    0.0000 H   0  0  0  0  0  0  0  0  0  0  0  0
    9.7942    2.0600    0.0000 H   0  0  0  0  0  0  0  0  0  0  0  0
    3.8705   -0.2249    0.0000 H   0  0  0  0  0  0  0  0  0  0  0  0
    4.6675   -0.2249    0.0000 H   0  0  0  0  0  0  0  0  0  0  0  0
   10.6603   -1.0600    0.0000 H   0  0  0  0  0  0  0  0  0  0  0  0
   15.9258    0.2249    0.0000 H   0  0  0  0  0  0  0  0  0  0  0  0
   15.1288    0.2249    0.0000 H   0  0  0  0  0  0  0  0  0  0  0  0
   15.9948   -1.2250    0.0000 H   0  0  0  0  0  0  0  0  0  0  0  0
   16.7919   -1.2250    0.0000 H   0  0  0  0  0  0  0  0  0  0  0  0
   14.1244   -1.0600    0.0000 H   0  0  0  0  0  0  0  0  0  0  0  0
   12.6002    2.0600    0.0000 H   0  0  0  0  0  0  0  0  0  0  0  0
   17.6579    0.2249    0.0000 H   0  0  0  0  0  0  0  0  0  0  0  0
   16.8608    0.2249    0.0000 H   0  0  0  0  0  0  0  0  0  0  0  0
   17.8154   -1.2869    0.0000 H   0  0  0  0  0  0  0  0  0  0  0  0
   18.6623   -1.0600    0.0000 H   0  0  0  0  0  0  0  0  0  0  0  0
   18.4354   -0.2131    0.0000 H   0  0  0  0  0  0  0  0  0  0  0  0
   15.1982   -2.0600    0.0000 H   0  0  0  0  0  0  0  0  0  0  0  0
    2.0000    0.5600    0.0000 H   0  0  0  0  0  0  0  0  0  0  0  0
  1  9  1  0  0  0  0
  1 40  1  0  0  0  0
  2 12  1  0  0  0  0
  2 43  1  0  0  0  0
  3 14  1  0  0  0  0
  3 49  1  0  0  0  0
  4 20  1  0  0  0  0
  4 55  1  0  0  0  0
  5 23  1  0  0  0  0
  5 56  1  0  0  0  0
  6 23  2  0  0  0  0
  7  8  1  0  0  0  0
  7  9  1  0  0  0  0
  7 25  1  0  0  0  0
  7 26  1  0  0  0  0
  8 10  1  0  0  0  0
  8 27  1  0  0  0  0
  8 28  1  0  0  0  0
  9 12  1  0  0  0  0
  9 29  1  0  0  0  0
 10 11  1  0  0  0  0
 10 30  1  0  0  0  0
 10 31  1  0  0  0  0
 11 13  1  0  0  0  0
 11 32  1  0  0  0  0
 11 33  1  0  0  0  0
 12 14  1  0  0  0  0
 12 34  1  0  0  0  0
 13 15  1  0  0  0  0
 13 35  1  0  0  0  0
 13 36  1  0  0  0  0
 14 18  1  0  0  0  0
 14 37  1  0  0  0  0
 15 16  1  0  0  0  0
 15 38  1  0  0  0  0
 15 39  1  0  0  0  0
 16 23  1  0  0  0  0
 16 41  1  0  0  0  0
 16 42  1  0  0  0  0
 17 19  1  0  0  0  0
 17 20  1  0  0  0  0
 17 44  1  0  0  0  0
 17 45  1  0  0  0  0
 18 22  3  0  0  0  0
 19 21  1  0  0  0  0
 19 46  1  0  0  0  0
 19 47  1  0  0  0  0
 20 22  1  0  0  0  0
 20 48  1  0  0  0  0
 21 24  1  0  0  0  0
 21 50  1  0  0  0  0
 21 51  1  0  0  0  0
 24 52  1  0  0  0  0
 24 53  1  0  0  0  0
 24 54  1  0  0  0  0
M  END
> <PUBCHEM_COMPOUND_CID>
24800195

> <PUBCHEM_COMPOUND_CANONICALIZED>
1

> <PUBCHEM_CACTVS_COMPLEXITY>
397

> <PUBCHEM_CACTVS_HBOND_ACCEPTOR>
6

> <PUBCHEM_CACTVS_HBOND_DONOR>
5

> <PUBCHEM_CACTVS_ROTATABLE_BOND>
13

> <PUBCHEM_CACTVS_SUBSKEYS>
AAADcfB4OAAAAAAAAAAAAAAAAAAAAAAAAAAAAAAAAAAAAAAAAAAAGgAACAAACBSggAICCAAAAgBIEACQCAgAAAAAAAAAAAEAAAABEBIAAAAAQAAFAAABAAGIyKCAAAAAAAAAAAAAAAAAAAAAAAAAAAAAAA==

> <PUBCHEM_IUPAC_OPENEYE_NAME>
9,10,11,14-tetrahydroxyoctadec-12-ynoic acid

> <PUBCHEM_IUPAC_CAS_NAME>
9,10,11,14-tetrahydroxy-12-octadecynoic acid

> <PUBCHEM_IUPAC_NAME_MARKUP>
9,10,11,14-tetrahydroxyoctadec-12-ynoic acid

> <PUBCHEM_IUPAC_NAME>
9,10,11,14-tetrahydroxyoctadec-12-ynoic acid

> <PUBCHEM_IUPAC_SYSTEMATIC_NAME>
9,10,11,14-tetrakis(oxidanyl)octadec-12-ynoic acid

> <PUBCHEM_IUPAC_TRADITIONAL_NAME>
9,10,11,14-tetrahydroxyoctadec-12-ynoic acid

> <PUBCHEM_IUPAC_INCHI>
InChI=1S/C18H32O6/c1-2-3-9-14(19)12-13-16(21)18(24)15(20)10-7-5-4-6-8-11-17(22)23/h14-16,18-21,24H,2-11H2,1H3,(H,22,23)

> <PUBCHEM_IUPAC_INCHIKEY>
DTCUTCQYZMBUDK-UHFFFAOYSA-N

> <PUBCHEM_XLOGP3_AA>
1.7

> <PUBCHEM_EXACT_MASS>
344.21988874

> <PUBCHEM_MOLECULAR_FORMULA>
C18H32O6

> <PUBCHEM_MOLECULAR_WEIGHT>
344.4

> <PUBCHEM_OPENEYE_CAN_SMILES>
CCCCC(C#CC(C(C(CCCCCCCC(=O)O)O)O)O)O

> <PUBCHEM_OPENEYE_ISO_SMILES>
CCCCC(C#CC(C(C(CCCCCCCC(=O)O)O)O)O)O

> <PUBCHEM_CACTVS_TPSA>
118

> <PUBCHEM_MONOISOTOPIC_WEIGHT>
344.21988874

> <PUBCHEM_TOTAL_CHARGE>
0

> <PUBCHEM_HEAVY_ATOM_COUNT>
24

> <PUBCHEM_ATOM_DEF_STEREO_COUNT>
0

> <PUBCHEM_ATOM_UDEF_STEREO_COUNT>
4

> <PUBCHEM_BOND_DEF_STEREO_COUNT>
0

> <PUBCHEM_BOND_UDEF_STEREO_COUNT>
0

> <PUBCHEM_ISOTOPIC_ATOM_COUNT>
0

> <PUBCHEM_COMPONENT_COUNT>
1

> <PUBCHEM_CACTVS_TAUTO_COUNT>
-1

> <PUBCHEM_COORDINATE_TYPE>
1
5
255

> <PUBCHEM_BONDANNOTATIONS>
9  1  3
12  2  3
14  3  3
20  4  3

$$$$
