 
  -OEChem-10192103572D

 63 65  0     1  0  0  0  0  0999 V2000
    7.7331   -0.5950    0.0000 O   0  0  0  0  0  0  0  0  0  0  0  0
    6.0010    0.4050    0.0000 O   0  0  0  0  0  0  0  0  0  0  0  0
    4.2690    0.4050    0.0000 O   0  0  0  0  0  0  0  0  0  0  0  0
    6.0010   -2.5950    0.0000 O   0  0  0  0  0  0  0  0  0  0  0  0
    7.7331   -3.5950    0.0000 O   0  0  0  0  0  0  0  0  0  0  0  0
    9.4651   -0.5950    0.0000 O   0  0  0  0  0  0  0  0  0  0  0  0
    9.4651   -2.5950    0.0000 O   0  0  0  0  0  0  0  0  0  0  0  0
    6.0010    2.4050    0.0000 O   0  0  0  0  0  0  0  0  0  0  0  0
    4.2690    3.4050    0.0000 O   0  0  0  0  0  0  0  0  0  0  0  0
    2.5369    2.4050    0.0000 O   0  0  0  0  0  0  0  0  0  0  0  0
    7.7331    2.4050    0.0000 O   0  0  0  0  0  0  0  0  0  0  0  0
   11.1972    2.4050    0.0000 O   0  0  0  0  0  0  0  0  0  0  0  0
    9.4651    3.4050    0.0000 O   0  0  0  0  0  0  0  0  0  0  0  0
    6.8671   -1.0950    0.0000 C   0  0  1  0  0  0  0  0  0  0  0  0
    6.8671   -2.0950    0.0000 C   0  0  2  0  0  0  0  0  0  0  0  0
    7.7331   -2.5950    0.0000 C   0  0  1  0  0  0  0  0  0  0  0  0
    8.5991   -2.0950    0.0000 C   0  0  2  0  0  0  0  0  0  0  0  0
    8.5991   -1.0950    0.0000 C   0  0  1  0  0  0  0  0  0  0  0  0
    6.0010   -0.5950    0.0000 C   0  0  0  0  0  0  0  0  0  0  0  0
    5.1350    0.9050    0.0000 C   0  0  2  0  0  0  0  0  0  0  0  0
    5.1350    1.9050    0.0000 C   0  0  1  0  0  0  0  0  0  0  0  0
    4.2690    2.4050    0.0000 C   0  0  2  0  0  0  0  0  0  0  0  0
    3.4030    1.9050    0.0000 C   0  0  1  0  0  0  0  0  0  0  0  0
    3.4030    0.9050    0.0000 C   0  0  0  0  0  0  0  0  0  0  0  0
    9.4651    0.4050    0.0000 C   0  0  0  0  0  0  0  0  0  0  0  0
   10.3312    0.9050    0.0000 C   0  0  0  0  0  0  0  0  0  0  0  0
    8.5991    0.9050    0.0000 C   0  0  0  0  0  0  0  0  0  0  0  0
    8.5991    1.9050    0.0000 C   0  0  0  0  0  0  0  0  0  0  0  0
   10.3312    1.9050    0.0000 C   0  0  0  0  0  0  0  0  0  0  0  0
    9.4651    2.4050    0.0000 C   0  0  0  0  0  0  0  0  0  0  0  0
    7.7331    3.4050    0.0000 C   0  0  0  0  0  0  0  0  0  0  0  0
   12.0632    1.9050    0.0000 C   0  0  0  0  0  0  0  0  0  0  0  0
   10.3312    3.9050    0.0000 C   0  0  0  0  0  0  0  0  0  0  0  0
    6.8671   -0.4750    0.0000 H   0  0  0  0  0  0  0  0  0  0  0  0
    6.8671   -2.7150    0.0000 H   0  0  0  0  0  0  0  0  0  0  0  0
    7.1962   -2.9050    0.0000 H   0  0  0  0  0  0  0  0  0  0  0  0
    8.5991   -2.7150    0.0000 H   0  0  0  0  0  0  0  0  0  0  0  0
    8.5991   -0.4750    0.0000 H   0  0  0  0  0  0  0  0  0  0  0  0
    5.3905   -0.4873    0.0000 H   0  0  0  0  0  0  0  0  0  0  0  0
    5.7890   -1.1776    0.0000 H   0  0  0  0  0  0  0  0  0  0  0  0
    5.6720    1.2150    0.0000 H   0  0  0  0  0  0  0  0  0  0  0  0
    5.1350    2.5250    0.0000 H   0  0  0  0  0  0  0  0  0  0  0  0
    3.7320    2.7150    0.0000 H   0  0  0  0  0  0  0  0  0  0  0  0
    3.4030    2.5250    0.0000 H   0  0  0  0  0  0  0  0  0  0  0  0
    2.7924    1.0127    0.0000 H   0  0  0  0  0  0  0  0  0  0  0  0
    3.1909    0.3224    0.0000 H   0  0  0  0  0  0  0  0  0  0  0  0
    5.4641   -2.2850    0.0000 H   0  0  0  0  0  0  0  0  0  0  0  0
    7.1962   -3.9050    0.0000 H   0  0  0  0  0  0  0  0  0  0  0  0
   10.0021   -2.2850    0.0000 H   0  0  0  0  0  0  0  0  0  0  0  0
    6.0010    3.0250    0.0000 H   0  0  0  0  0  0  0  0  0  0  0  0
    3.7320    3.7150    0.0000 H   0  0  0  0  0  0  0  0  0  0  0  0
    2.0000    2.0950    0.0000 H   0  0  0  0  0  0  0  0  0  0  0  0
   10.8681    0.5950    0.0000 H   0  0  0  0  0  0  0  0  0  0  0  0
    8.0622    0.5950    0.0000 H   0  0  0  0  0  0  0  0  0  0  0  0
    8.3531    3.4050    0.0000 H   0  0  0  0  0  0  0  0  0  0  0  0
    7.7331    4.0250    0.0000 H   0  0  0  0  0  0  0  0  0  0  0  0
    7.1131    3.4050    0.0000 H   0  0  0  0  0  0  0  0  0  0  0  0
   11.7532    1.3681    0.0000 H   0  0  0  0  0  0  0  0  0  0  0  0
   12.6002    1.5950    0.0000 H   0  0  0  0  0  0  0  0  0  0  0  0
   12.3732    2.4419    0.0000 H   0  0  0  0  0  0  0  0  0  0  0  0
   10.6412    3.3681    0.0000 H   0  0  0  0  0  0  0  0  0  0  0  0
   10.8681    4.2150    0.0000 H   0  0  0  0  0  0  0  0  0  0  0  0
   10.0212    4.4419    0.0000 H   0  0  0  0  0  0  0  0  0  0  0  0
  1 14  1  0  0  0  0
  1 18  1  0  0  0  0
  2 19  1  0  0  0  0
 20  2  1  6  0  0  0
  3 20  1  0  0  0  0
  3 24  1  0  0  0  0
 15  4  1  6  0  0  0
  4 47  1  0  0  0  0
 16  5  1  1  0  0  0
  5 48  1  0  0  0  0
 18  6  1  1  0  0  0
  6 25  1  0  0  0  0
 17  7  1  6  0  0  0
  7 49  1  0  0  0  0
 21  8  1  1  0  0  0
  8 50  1  0  0  0  0
 22  9  1  6  0  0  0
  9 51  1  0  0  0  0
 23 10  1  1  0  0  0
 10 52  1  0  0  0  0
 11 28  1  0  0  0  0
 11 31  1  0  0  0  0
 12 29  1  0  0  0  0
 12 32  1  0  0  0  0
 13 30  1  0  0  0  0
 13 33  1  0  0  0  0
 14 15  1  0  0  0  0
 14 19  1  1  0  0  0
 14 34  1  0  0  0  0
 15 16  1  0  0  0  0
 15 35  1  0  0  0  0
 16 17  1  0  0  0  0
 16 36  1  0  0  0  0
 17 18  1  0  0  0  0
 17 37  1  0  0  0  0
 18 38  1  0  0  0  0
 19 39  1  0  0  0  0
 19 40  1  0  0  0  0
 20 21  1  0  0  0  0
 20 41  1  0  0  0  0
 21 22  1  0  0  0  0
 21 42  1  0  0  0  0
 22 23  1  0  0  0  0
 22 43  1  0  0  0  0
 23 24  1  0  0  0  0
 23 44  1  0  0  0  0
 24 45  1  0  0  0  0
 24 46  1  0  0  0  0
 25 26  2  0  0  0  0
 25 27  1  0  0  0  0
 26 29  1  0  0  0  0
 26 53  1  0  0  0  0
 27 28  2  0  0  0  0
 27 54  1  0  0  0  0
 28 30  1  0  0  0  0
 29 30  2  0  0  0  0
 31 55  1  0  0  0  0
 31 56  1  0  0  0  0
 31 57  1  0  0  0  0
 32 58  1  0  0  0  0
 32 59  1  0  0  0  0
 32 60  1  0  0  0  0
 33 61  1  0  0  0  0
 33 62  1  0  0  0  0
 33 63  1  0  0  0  0
M  END
> <PUBCHEM_COMPOUND_CID>
10367775

> <PUBCHEM_COMPOUND_CANONICALIZED>
1

> <PUBCHEM_CACTVS_COMPLEXITY>
582

> <PUBCHEM_CACTVS_HBOND_ACCEPTOR>
13

> <PUBCHEM_CACTVS_HBOND_DONOR>
6

> <PUBCHEM_CACTVS_ROTATABLE_BOND>
8

> <PUBCHEM_CACTVS_SUBSKEYS>
AAADceB4PAAAAAAAAAAAAAAAAAAAAAAAAAA0SIAAAAAAAAABAAAAGgAACAAACBSwkAMyDoAABgCAACBCAAACCAAgIAAAiAAGiIgdNyKEMRqieCKlwBUPqAfAYAwAAQAACAAAQAACAAAQAACAAAAAAAAAAA==

> <PUBCHEM_IUPAC_OPENEYE_NAME>
(2R,3S,4S,5R,6S)-2-[[(2S,3R,4S,5R)-3,4,5-trihydroxytetrahydropyran-2-yl]oxymethyl]-6-(3,4,5-trimethoxyphenoxy)tetrahydropyran-3,4,5-triol

> <PUBCHEM_IUPAC_CAS_NAME>
(2R,3S,4S,5R,6S)-2-[[(2S,3R,4S,5R)-3,4,5-trihydroxy-2-oxanyl]oxymethyl]-6-(3,4,5-trimethoxyphenoxy)oxane-3,4,5-triol

> <PUBCHEM_IUPAC_NAME_MARKUP>
(2<I>R</I>,3<I>S</I>,4<I>S</I>,5<I>R</I>,6<I>S</I>)-2-[[(2<I>S</I>,3<I>R</I>,4<I>S</I>,5<I>R</I>)-3,4,5-trihydroxyoxan-2-yl]oxymethyl]-6-(3,4,5-trimethoxyphenoxy)oxane-3,4,5-triol

> <PUBCHEM_IUPAC_NAME>
(2R,3S,4S,5R,6S)-2-[[(2S,3R,4S,5R)-3,4,5-trihydroxyoxan-2-yl]oxymethyl]-6-(3,4,5-trimethoxyphenoxy)oxane-3,4,5-triol

> <PUBCHEM_IUPAC_SYSTEMATIC_NAME>
(2S,3R,4S,5S,6R)-2-(3,4,5-trimethoxyphenoxy)-6-[[(2S,3R,4S,5R)-3,4,5-tris(oxidanyl)oxan-2-yl]oxymethyl]oxane-3,4,5-triol

> <PUBCHEM_IUPAC_TRADITIONAL_NAME>
(2R,3S,4S,5R,6S)-2-[[(2S,3R,4S,5R)-3,4,5-trihydroxytetrahydropyran-2-yl]oxymethyl]-6-(3,4,5-trimethoxyphenoxy)tetrahydropyran-3,4,5-triol

> <PUBCHEM_IUPAC_INCHI>
InChI=1S/C20H30O13/c1-27-10-4-8(5-11(28-2)18(10)29-3)32-20-17(26)15(24)14(23)12(33-20)7-31-19-16(25)13(22)9(21)6-30-19/h4-5,9,12-17,19-26H,6-7H2,1-3H3/t9-,12-,13+,14-,15+,16-,17-,19+,20-/m1/s1

> <PUBCHEM_IUPAC_INCHIKEY>
GGIDHIBVLYVTAU-WYOQWEDDSA-N

> <PUBCHEM_XLOGP3_AA>
-2.4

> <PUBCHEM_EXACT_MASS>
478.16864101

> <PUBCHEM_MOLECULAR_FORMULA>
C20H30O13

> <PUBCHEM_MOLECULAR_WEIGHT>
478.4

> <PUBCHEM_OPENEYE_CAN_SMILES>
COC1=CC(=CC(=C1OC)OC)OC2C(C(C(C(O2)COC3C(C(C(CO3)O)O)O)O)O)O

> <PUBCHEM_OPENEYE_ISO_SMILES>
COC1=CC(=CC(=C1OC)OC)O[C@H]2[C@@H]([C@H]([C@@H]([C@H](O2)CO[C@H]3[C@@H]([C@H]([C@@H](CO3)O)O)O)O)O)O

> <PUBCHEM_CACTVS_TPSA>
186

> <PUBCHEM_MONOISOTOPIC_WEIGHT>
478.16864101

> <PUBCHEM_TOTAL_CHARGE>
0

> <PUBCHEM_HEAVY_ATOM_COUNT>
33

> <PUBCHEM_ATOM_DEF_STEREO_COUNT>
9

> <PUBCHEM_ATOM_UDEF_STEREO_COUNT>
0

> <PUBCHEM_BOND_DEF_STEREO_COUNT>
0

> <PUBCHEM_BOND_UDEF_STEREO_COUNT>
0

> <PUBCHEM_ISOTOPIC_ATOM_COUNT>
0

> <PUBCHEM_COMPONENT_COUNT>
1

> <PUBCHEM_CACTVS_TAUTO_COUNT>
-1

> <PUBCHEM_COORDINATE_TYPE>
1
5
255

> <PUBCHEM_BONDANNOTATIONS>
23  10  5
14  19  5
20  2  6
25  26  8
25  27  8
26  29  8
27  28  8
28  30  8
29  30  8
15  4  6
16  5  5
18  6  5
17  7  6
21  8  5
22  9  6

$$$$
