 
  -OEChem-10192103302D

 24 24  0     1  0  0  0  0  0999 V2000
    5.9150   -0.5175    0.0000 O   0  0  0  0  0  0  0  0  0  0  0  0
    6.4150    1.0213    0.0000 O   0  0  0  0  0  0  0  0  0  0  0  0
    3.9470   -1.2169    0.0000 O   0  0  0  0  0  0  0  0  0  0  0  0
    2.4608    0.1213    0.0000 O   0  0  0  0  0  0  0  0  0  0  0  0
    3.6197    1.4085    0.0000 O   0  0  0  0  0  0  0  0  0  0  0  0
    5.1060    0.0702    0.0000 C   0  0  1  0  0  0  0  0  0  0  0  0
    6.7240    0.0702    0.0000 C   0  0  3  0  0  0  0  0  0  0  0  0
    5.4150    1.0213    0.0000 C   0  0  0  0  0  0  0  0  0  0  0  0
    4.1550   -0.2388    0.0000 C   0  0  3  0  0  0  0  0  0  0  0  0
    7.6751   -0.2388    0.0000 C   0  0  0  0  0  0  0  0  0  0  0  0
    8.4182    0.4304    0.0000 C   0  0  0  0  0  0  0  0  0  0  0  0
    3.4118    0.4304    0.0000 C   0  0  0  0  0  0  0  0  0  0  0  0
    5.5444   -0.3682    0.0000 H   0  0  0  0  0  0  0  0  0  0  0  0
    6.8210   -0.5421    0.0000 H   0  0  0  0  0  0  0  0  0  0  0  0
    5.4798    1.6379    0.0000 H   0  0  0  0  0  0  0  0  0  0  0  0
    4.8086    1.1502    0.0000 H   0  0  0  0  0  0  0  0  0  0  0  0
    4.6157   -0.6536    0.0000 H   0  0  0  0  0  0  0  0  0  0  0  0
    7.3840   -0.7862    0.0000 H   0  0  0  0  0  0  0  0  0  0  0  0
    8.1637   -0.6205    0.0000 H   0  0  0  0  0  0  0  0  0  0  0  0
    8.8331   -0.0304    0.0000 H   0  0  0  0  0  0  0  0  0  0  0  0
    8.8790    0.8452    0.0000 H   0  0  0  0  0  0  0  0  0  0  0  0
    8.0034    0.8911    0.0000 H   0  0  0  0  0  0  0  0  0  0  0  0
    3.3574   -1.4085    0.0000 H   0  0  0  0  0  0  0  0  0  0  0  0
    2.0000    0.5362    0.0000 H   0  0  0  0  0  0  0  0  0  0  0  0
  1  6  1  0  0  0  0
  1  7  1  0  0  0  0
  2  7  1  0  0  0  0
  2  8  1  0  0  0  0
  3  9  1  0  0  0  0
  3 23  1  0  0  0  0
  4 12  1  0  0  0  0
  4 24  1  0  0  0  0
  5 12  2  0  0  0  0
  6  8  1  0  0  0  0
  6  9  1  6  0  0  0
  6 13  1  0  0  0  0
  7 10  1  0  0  0  0
  7 14  1  0  0  0  0
  8 15  1  0  0  0  0
  8 16  1  0  0  0  0
  9 12  1  0  0  0  0
  9 17  1  0  0  0  0
 10 11  1  0  0  0  0
 10 18  1  0  0  0  0
 10 19  1  0  0  0  0
 11 20  1  0  0  0  0
 11 21  1  0  0  0  0
 11 22  1  0  0  0  0
M  END
> <PUBCHEM_COMPOUND_CID>
130433521

> <PUBCHEM_COMPOUND_CANONICALIZED>
1

> <PUBCHEM_CACTVS_COMPLEXITY>
169

> <PUBCHEM_CACTVS_HBOND_ACCEPTOR>
5

> <PUBCHEM_CACTVS_HBOND_DONOR>
2

> <PUBCHEM_CACTVS_ROTATABLE_BOND>
3

> <PUBCHEM_CACTVS_SUBSKEYS>
AAADccBgOAAAAAAAAAAAAAAAAAAAASAAAAAAAAAAAAAAAAAAAAAAGgAACAAACBSwgAMCCAAABgAIAACQCAIAAAAAAAAAAAFAAAAREBQAAAAiQAAFIAAHAABCAAAAAAAAAAAAAAAAAAAAAAAAAAAAAAAAAA==

> <PUBCHEM_IUPAC_OPENEYE_NAME>
2-[(4S)-2-ethyl-1,3-dioxolan-4-yl]-2-hydroxy-acetic acid

> <PUBCHEM_IUPAC_CAS_NAME>
2-[(4S)-2-ethyl-1,3-dioxolan-4-yl]-2-hydroxyacetic acid

> <PUBCHEM_IUPAC_NAME_MARKUP>
2-[(4<I>S</I>)-2-ethyl-1,3-dioxolan-4-yl]-2-hydroxyacetic acid

> <PUBCHEM_IUPAC_NAME>
2-[(4S)-2-ethyl-1,3-dioxolan-4-yl]-2-hydroxyacetic acid

> <PUBCHEM_IUPAC_SYSTEMATIC_NAME>
2-[(4S)-2-ethyl-1,3-dioxolan-4-yl]-2-oxidanyl-ethanoic acid

> <PUBCHEM_IUPAC_TRADITIONAL_NAME>
2-[(4S)-2-ethyl-1,3-dioxolan-4-yl]-2-hydroxy-acetic acid

> <PUBCHEM_IUPAC_INCHI>
InChI=1S/C7H12O5/c1-2-5-11-3-4(12-5)6(8)7(9)10/h4-6,8H,2-3H2,1H3,(H,9,10)/t4-,5?,6?/m0/s1

> <PUBCHEM_IUPAC_INCHIKEY>
QDLNRXBFQYRXIO-KXGSVCODSA-N

> <PUBCHEM_XLOGP3_AA>
-0.2

> <PUBCHEM_EXACT_MASS>
176.06847348

> <PUBCHEM_MOLECULAR_FORMULA>
C7H12O5

> <PUBCHEM_MOLECULAR_WEIGHT>
176.17

> <PUBCHEM_OPENEYE_CAN_SMILES>
CCC1OCC(O1)C(C(=O)O)O

> <PUBCHEM_OPENEYE_ISO_SMILES>
CCC1OC[C@H](O1)C(C(=O)O)O

> <PUBCHEM_CACTVS_TPSA>
76

> <PUBCHEM_MONOISOTOPIC_WEIGHT>
176.06847348

> <PUBCHEM_TOTAL_CHARGE>
0

> <PUBCHEM_HEAVY_ATOM_COUNT>
12

> <PUBCHEM_ATOM_DEF_STEREO_COUNT>
1

> <PUBCHEM_ATOM_UDEF_STEREO_COUNT>
2

> <PUBCHEM_BOND_DEF_STEREO_COUNT>
0

> <PUBCHEM_BOND_UDEF_STEREO_COUNT>
0

> <PUBCHEM_ISOTOPIC_ATOM_COUNT>
0

> <PUBCHEM_COMPONENT_COUNT>
1

> <PUBCHEM_CACTVS_TAUTO_COUNT>
-1

> <PUBCHEM_COORDINATE_TYPE>
1
5
255

> <PUBCHEM_BONDANNOTATIONS>
9  3  3
6  9  6
7  10  3

$$$$
