 
  -OEChem-10192103572D

 32 31  0     0  0  0  0  0  0999 V2000
    4.5390   -0.4840    0.0000 O   0  0  0  0  0  0  0  0  0  0  0  0
    6.7318    2.1294    0.0000 O   0  0  0  0  0  0  0  0  0  0  0  0
    2.2274    1.8030    0.0000 O   0  0  0  0  0  0  0  0  0  0  0  0
    5.1042    2.7218    0.0000 O   0  0  0  0  0  0  0  0  0  0  0  0
    3.8549    2.3954    0.0000 O   0  0  0  0  0  0  0  0  0  0  0  0
    5.4050    1.0160    0.0000 C   0  0  0  0  0  0  0  0  0  0  0  0
    3.5542    0.6897    0.0000 C   0  0  0  0  0  0  0  0  0  0  0  0
    4.5390    0.5160    0.0000 C   0  0  0  0  0  0  0  0  0  0  0  0
    6.2710    0.5160    0.0000 C   0  0  0  0  0  0  0  0  0  0  0  0
    2.9114   -0.0763    0.0000 C   0  0  0  0  0  0  0  0  0  0  0  0
    6.2710   -0.4840    0.0000 C   0  0  0  0  0  0  0  0  0  0  0  0
    3.2534   -1.0160    0.0000 C   0  0  0  0  0  0  0  0  0  0  0  0
    5.7470    1.9557    0.0000 C   0  0  0  0  0  0  0  0  0  0  0  0
    3.2122    1.6294    0.0000 C   0  0  0  0  0  0  0  0  0  0  0  0
    7.1371   -0.9840    0.0000 C   0  0  0  0  0  0  0  0  0  0  0  0
    2.6106   -1.7821    0.0000 C   0  0  0  0  0  0  0  0  0  0  0  0
    7.1371   -1.9840    0.0000 C   0  0  0  0  0  0  0  0  0  0  0  0
    2.9526   -2.7218    0.0000 C   0  0  0  0  0  0  0  0  0  0  0  0
    6.8080    0.8260    0.0000 H   0  0  0  0  0  0  0  0  0  0  0  0
    2.3008    0.0313    0.0000 H   0  0  0  0  0  0  0  0  0  0  0  0
    5.7341   -0.7940    0.0000 H   0  0  0  0  0  0  0  0  0  0  0  0
    3.8640   -1.1237    0.0000 H   0  0  0  0  0  0  0  0  0  0  0  0
    7.6740   -0.6740    0.0000 H   0  0  0  0  0  0  0  0  0  0  0  0
    2.0000   -1.6744    0.0000 H   0  0  0  0  0  0  0  0  0  0  0  0
    6.5171   -1.9840    0.0000 H   0  0  0  0  0  0  0  0  0  0  0  0
    7.1371   -2.6040    0.0000 H   0  0  0  0  0  0  0  0  0  0  0  0
    7.7571   -1.9840    0.0000 H   0  0  0  0  0  0  0  0  0  0  0  0
    2.3700   -2.9338    0.0000 H   0  0  0  0  0  0  0  0  0  0  0  0
    3.1647   -3.3044    0.0000 H   0  0  0  0  0  0  0  0  0  0  0  0
    3.5352   -2.5097    0.0000 H   0  0  0  0  0  0  0  0  0  0  0  0
    6.9439    2.7120    0.0000 H   0  0  0  0  0  0  0  0  0  0  0  0
    2.0153    2.3856    0.0000 H   0  0  0  0  0  0  0  0  0  0  0  0
  1  8  2  0  0  0  0
  2 13  1  0  0  0  0
  2 31  1  0  0  0  0
  3 14  1  0  0  0  0
  3 32  1  0  0  0  0
  4 13  2  0  0  0  0
  5 14  2  0  0  0  0
  6  8  1  0  0  0  0
  6  9  2  0  0  0  0
  6 13  1  0  0  0  0
  7  8  1  0  0  0  0
  7 10  2  0  0  0  0
  7 14  1  0  0  0  0
  9 11  1  0  0  0  0
  9 19  1  0  0  0  0
 10 12  1  0  0  0  0
 10 20  1  0  0  0  0
 11 15  2  0  0  0  0
 11 21  1  0  0  0  0
 12 16  2  0  0  0  0
 12 22  1  0  0  0  0
 15 17  1  0  0  0  0
 15 23  1  0  0  0  0
 16 18  1  0  0  0  0
 16 24  1  0  0  0  0
 17 25  1  0  0  0  0
 17 26  1  0  0  0  0
 17 27  1  0  0  0  0
 18 28  1  0  0  0  0
 18 29  1  0  0  0  0
 18 30  1  0  0  0  0
M  END
> <PUBCHEM_COMPOUND_CID>
88074589

> <PUBCHEM_COMPOUND_CANONICALIZED>
1

> <PUBCHEM_CACTVS_COMPLEXITY>
422

> <PUBCHEM_CACTVS_HBOND_ACCEPTOR>
5

> <PUBCHEM_CACTVS_HBOND_DONOR>
2

> <PUBCHEM_CACTVS_ROTATABLE_BOND>
6

> <PUBCHEM_CACTVS_SUBSKEYS>
AAADccBwOAAAAAAAAAAAAAAAAAAAAAAAAAAAAAAAAAAAAAAAAAAAGgAACAAADASAgAACCAAAAgCIAqDSCAAAAAAgAAAICAEAAEgIBBYIAQAAUAAEoAAIkYKIJgAAAAAAAAAAAAAAAAAAAAAAAAAAAAAAAA==

> <PUBCHEM_IUPAC_OPENEYE_NAME>
(2E,4E)-2,4-bis[(E)-but-2-enylidene]-3-oxo-pentanedioic acid

> <PUBCHEM_IUPAC_CAS_NAME>
(2E,4E)-2,4-bis[(E)-but-2-enylidene]-3-oxopentanedioic acid

> <PUBCHEM_IUPAC_NAME_MARKUP>
(2<I>E</I>,4<I>E</I>)-2,4-bis[(<I>E</I>)-but-2-enylidene]-3-oxopentanedioic acid

> <PUBCHEM_IUPAC_NAME>
(2E,4E)-2,4-bis[(E)-but-2-enylidene]-3-oxopentanedioic acid

> <PUBCHEM_IUPAC_SYSTEMATIC_NAME>
(2E,4E)-2,4-bis[(E)-but-2-enylidene]-3-oxidanylidene-pentanedioic acid

> <PUBCHEM_IUPAC_TRADITIONAL_NAME>
(2E,4E)-2,4-bis[(E)-but-2-enylidene]-3-keto-glutaric acid

> <PUBCHEM_IUPAC_INCHI>
InChI=1S/C13H14O5/c1-3-5-7-9(12(15)16)11(14)10(13(17)18)8-6-4-2/h3-8H,1-2H3,(H,15,16)(H,17,18)/b5-3+,6-4+,9-7+,10-8+

> <PUBCHEM_IUPAC_INCHIKEY>
QISABJZULRFCRJ-MIIZMDLZSA-N

> <PUBCHEM_XLOGP3_AA>
2.9

> <PUBCHEM_EXACT_MASS>
250.08412354

> <PUBCHEM_MOLECULAR_FORMULA>
C13H14O5

> <PUBCHEM_MOLECULAR_WEIGHT>
250.25

> <PUBCHEM_OPENEYE_CAN_SMILES>
CC=CC=C(C(=O)C(=CC=CC)C(=O)O)C(=O)O

> <PUBCHEM_OPENEYE_ISO_SMILES>
C/C=C/C=C(/C(=O)O)\C(=O)/C(=C\C=C\C)/C(=O)O

> <PUBCHEM_CACTVS_TPSA>
91.7

> <PUBCHEM_MONOISOTOPIC_WEIGHT>
250.08412354

> <PUBCHEM_TOTAL_CHARGE>
0

> <PUBCHEM_HEAVY_ATOM_COUNT>
18

> <PUBCHEM_ATOM_DEF_STEREO_COUNT>
0

> <PUBCHEM_ATOM_UDEF_STEREO_COUNT>
0

> <PUBCHEM_BOND_DEF_STEREO_COUNT>
4

> <PUBCHEM_BOND_UDEF_STEREO_COUNT>
0

> <PUBCHEM_ISOTOPIC_ATOM_COUNT>
0

> <PUBCHEM_COMPONENT_COUNT>
1

> <PUBCHEM_CACTVS_TAUTO_COUNT>
-1

> <PUBCHEM_COORDINATE_TYPE>
1
5
255

$$$$
