 
  -OEChem-10192104412D

 24 24  0     0  0  0  0  0  0999 V2000
    4.5981    3.0000    0.0000 S   0  0  0  0  0  0  0  0  0  0  0  0
    4.5981    4.0000    0.0000 O   0  0  0  0  0  0  0  0  0  0  0  0
    5.5981    3.0000    0.0000 O   0  0  0  0  0  0  0  0  0  0  0  0
    3.5981    3.0000    0.0000 O   0  0  0  0  0  0  0  0  0  0  0  0
    3.7320   -2.5000    0.0000 O   0  0  0  0  0  0  0  0  0  0  0  0
    2.8660   -4.0000    0.0000 O   0  0  0  0  0  0  0  0  0  0  0  0
    2.0000   -2.5000    0.0000 O   0  0  0  0  0  0  0  0  0  0  0  0
    4.5981   -1.0000    0.0000 N   0  0  0  0  0  0  0  0  0  0  0  0
    3.7320   -1.5000    0.0000 N   0  0  0  0  0  0  0  0  0  0  0  0
    4.5981    2.0000    0.0000 C   0  0  0  0  0  0  0  0  0  0  0  0
    4.5981   -0.0000    0.0000 C   0  0  0  0  0  0  0  0  0  0  0  0
    3.7320    1.5000    0.0000 C   0  0  0  0  0  0  0  0  0  0  0  0
    5.4641    1.5000    0.0000 C   0  0  0  0  0  0  0  0  0  0  0  0
    3.7320    0.5000    0.0000 C   0  0  0  0  0  0  0  0  0  0  0  0
    5.4641    0.5000    0.0000 C   0  0  0  0  0  0  0  0  0  0  0  0
    2.8660   -3.0000    0.0000 C   0  0  0  0  0  0  0  0  0  0  0  0
    3.1951    1.8100    0.0000 H   0  0  0  0  0  0  0  0  0  0  0  0
    6.0010    1.8100    0.0000 H   0  0  0  0  0  0  0  0  0  0  0  0
    3.1951    0.1900    0.0000 H   0  0  0  0  0  0  0  0  0  0  0  0
    6.0010    0.1900    0.0000 H   0  0  0  0  0  0  0  0  0  0  0  0
    5.1350   -1.3100    0.0000 H   0  0  0  0  0  0  0  0  0  0  0  0
    3.1951   -1.1900    0.0000 H   0  0  0  0  0  0  0  0  0  0  0  0
    5.1350    4.3100    0.0000 H   0  0  0  0  0  0  0  0  0  0  0  0
    2.3291   -4.3100    0.0000 H   0  0  0  0  0  0  0  0  0  0  0  0
  1  2  1  0  0  0  0
  1  3  2  0  0  0  0
  1  4  2  0  0  0  0
  1 10  1  0  0  0  0
  2 23  1  0  0  0  0
  5  9  1  0  0  0  0
  5 16  1  0  0  0  0
  6 16  1  0  0  0  0
  6 24  1  0  0  0  0
  7 16  2  0  0  0  0
  8  9  1  0  0  0  0
  8 11  1  0  0  0  0
  8 21  1  0  0  0  0
  9 22  1  0  0  0  0
 10 12  2  0  0  0  0
 10 13  1  0  0  0  0
 11 14  2  0  0  0  0
 11 15  1  0  0  0  0
 12 14  1  0  0  0  0
 12 17  1  0  0  0  0
 13 15  2  0  0  0  0
 13 18  1  0  0  0  0
 14 19  1  0  0  0  0
 15 20  1  0  0  0  0
M  END
> <PUBCHEM_COMPOUND_CID>
88706779

> <PUBCHEM_COMPOUND_CANONICALIZED>
1

> <PUBCHEM_CACTVS_COMPLEXITY>
329

> <PUBCHEM_CACTVS_HBOND_ACCEPTOR>
8

> <PUBCHEM_CACTVS_HBOND_DONOR>
4

> <PUBCHEM_CACTVS_ROTATABLE_BOND>
5

> <PUBCHEM_CACTVS_SUBSKEYS>
AAADccBjOABAAAAAAAAAAAAAAAAAAAAAAAAwAAAAAAAAAAABAAAAHgQcCAAACAiBUAAwyYBiAoKIACRCSHDCBEAgAgIYqBgAZIgIICKAkZGAIABgkAAIyAcQAAAAAAQAAAAAAAAACAAAAAAAAAAAAAAAAA==

> <PUBCHEM_IUPAC_OPENEYE_NAME>
4-(2-carboxyoxyhydrazino)benzenesulfonic acid

> <PUBCHEM_IUPAC_CAS_NAME>
4-(carboxyoxyhydrazo)benzenesulfonic acid

> <PUBCHEM_IUPAC_NAME_MARKUP>
4-(2-carboxyoxyhydrazinyl)benzenesulfonic acid

> <PUBCHEM_IUPAC_NAME>
4-(2-carboxyoxyhydrazinyl)benzenesulfonic acid

> <PUBCHEM_IUPAC_SYSTEMATIC_NAME>
4-(2-carboxyoxyhydrazinyl)benzenesulfonic acid

> <PUBCHEM_IUPAC_TRADITIONAL_NAME>
4-(N'-carboxyoxyhydrazino)besylic acid

> <PUBCHEM_IUPAC_INCHI>
InChI=1S/C7H8N2O6S/c10-7(11)15-9-8-5-1-3-6(4-2-5)16(12,13)14/h1-4,8-9H,(H,10,11)(H,12,13,14)

> <PUBCHEM_IUPAC_INCHIKEY>
HRDHIUPUZLNARZ-UHFFFAOYSA-N

> <PUBCHEM_XLOGP3_AA>
-1.1

> <PUBCHEM_EXACT_MASS>
248.01030715

> <PUBCHEM_MOLECULAR_FORMULA>
C7H8N2O6S

> <PUBCHEM_MOLECULAR_WEIGHT>
248.22

> <PUBCHEM_OPENEYE_CAN_SMILES>
C1=CC(=CC=C1NNOC(=O)O)S(=O)(=O)O

> <PUBCHEM_OPENEYE_ISO_SMILES>
C1=CC(=CC=C1NNOC(=O)O)S(=O)(=O)O

> <PUBCHEM_CACTVS_TPSA>
133

> <PUBCHEM_MONOISOTOPIC_WEIGHT>
248.01030715

> <PUBCHEM_TOTAL_CHARGE>
0

> <PUBCHEM_HEAVY_ATOM_COUNT>
16

> <PUBCHEM_ATOM_DEF_STEREO_COUNT>
0

> <PUBCHEM_ATOM_UDEF_STEREO_COUNT>
0

> <PUBCHEM_BOND_DEF_STEREO_COUNT>
0

> <PUBCHEM_BOND_UDEF_STEREO_COUNT>
0

> <PUBCHEM_ISOTOPIC_ATOM_COUNT>
0

> <PUBCHEM_COMPONENT_COUNT>
1

> <PUBCHEM_CACTVS_TAUTO_COUNT>
-1

> <PUBCHEM_COORDINATE_TYPE>
1
5
255

> <PUBCHEM_BONDANNOTATIONS>
10  12  8
10  13  8
11  14  8
11  15  8
12  14  8
13  15  8

$$$$
