 
  -OEChem-10192104342D

 55 54  0     1  0  0  0  0  0999 V2000
   15.5273   -0.5950    0.0000 O   0  0  0  0  0  0  0  0  0  0  0  0
    2.5369    0.9050    0.0000 O   0  0  0  0  0  0  0  0  0  0  0  0
   18.1254    0.9050    0.0000 O   0  0  0  0  0  0  0  0  0  0  0  0
   17.2594   -0.5950    0.0000 O   0  0  0  0  0  0  0  0  0  0  0  0
   10.3312    0.4050    0.0000 C   0  0  0  0  0  0  0  0  0  0  0  0
   11.1972    0.9050    0.0000 C   0  0  0  0  0  0  0  0  0  0  0  0
    9.4651    0.9050    0.0000 C   0  0  0  0  0  0  0  0  0  0  0  0
   12.0632    0.4050    0.0000 C   0  0  0  0  0  0  0  0  0  0  0  0
    8.5991    0.4050    0.0000 C   0  0  0  0  0  0  0  0  0  0  0  0
   12.9292    0.9050    0.0000 C   0  0  0  0  0  0  0  0  0  0  0  0
    7.7331    0.9050    0.0000 C   0  0  0  0  0  0  0  0  0  0  0  0
   13.7953    0.4050    0.0000 C   0  0  0  0  0  0  0  0  0  0  0  0
    6.8671    0.4050    0.0000 C   0  0  0  0  0  0  0  0  0  0  0  0
    6.0010    0.9050    0.0000 C   0  0  0  0  0  0  0  0  0  0  0  0
   14.6613    0.9050    0.0000 C   0  0  0  0  0  0  0  0  0  0  0  0
    5.1350    0.4050    0.0000 C   0  0  0  0  0  0  0  0  0  0  0  0
   15.5273    0.4050    0.0000 C   0  0  2  0  0  0  0  0  0  0  0  0
    4.2690    0.9050    0.0000 C   0  0  0  0  0  0  0  0  0  0  0  0
   16.3933    0.9050    0.0000 C   0  0  0  0  0  0  0  0  0  0  0  0
    3.4030    0.4050    0.0000 C   0  0  0  0  0  0  0  0  0  0  0  0
   17.2594    0.4050    0.0000 C   0  0  0  0  0  0  0  0  0  0  0  0
    9.9326   -0.0699    0.0000 H   0  0  0  0  0  0  0  0  0  0  0  0
   10.7297   -0.0699    0.0000 H   0  0  0  0  0  0  0  0  0  0  0  0
   11.5957    1.3800    0.0000 H   0  0  0  0  0  0  0  0  0  0  0  0
   10.7987    1.3800    0.0000 H   0  0  0  0  0  0  0  0  0  0  0  0
    9.8637    1.3800    0.0000 H   0  0  0  0  0  0  0  0  0  0  0  0
    9.0666    1.3800    0.0000 H   0  0  0  0  0  0  0  0  0  0  0  0
   11.6647   -0.0699    0.0000 H   0  0  0  0  0  0  0  0  0  0  0  0
   12.4617   -0.0699    0.0000 H   0  0  0  0  0  0  0  0  0  0  0  0
    8.2006   -0.0699    0.0000 H   0  0  0  0  0  0  0  0  0  0  0  0
    8.9976   -0.0699    0.0000 H   0  0  0  0  0  0  0  0  0  0  0  0
   13.3278    1.3800    0.0000 H   0  0  0  0  0  0  0  0  0  0  0  0
   12.5307    1.3800    0.0000 H   0  0  0  0  0  0  0  0  0  0  0  0
    8.1316    1.3800    0.0000 H   0  0  0  0  0  0  0  0  0  0  0  0
    7.3346    1.3800    0.0000 H   0  0  0  0  0  0  0  0  0  0  0  0
   13.3967   -0.0699    0.0000 H   0  0  0  0  0  0  0  0  0  0  0  0
   14.1938   -0.0699    0.0000 H   0  0  0  0  0  0  0  0  0  0  0  0
    6.4685   -0.0699    0.0000 H   0  0  0  0  0  0  0  0  0  0  0  0
    7.2656   -0.0699    0.0000 H   0  0  0  0  0  0  0  0  0  0  0  0
    6.3996    1.3800    0.0000 H   0  0  0  0  0  0  0  0  0  0  0  0
    5.6025    1.3800    0.0000 H   0  0  0  0  0  0  0  0  0  0  0  0
   15.0598    1.3800    0.0000 H   0  0  0  0  0  0  0  0  0  0  0  0
   14.2628    1.3800    0.0000 H   0  0  0  0  0  0  0  0  0  0  0  0
    4.7365   -0.0699    0.0000 H   0  0  0  0  0  0  0  0  0  0  0  0
    5.5335   -0.0699    0.0000 H   0  0  0  0  0  0  0  0  0  0  0  0
   14.9904    0.0950    0.0000 H   0  0  0  0  0  0  0  0  0  0  0  0
    4.6675    1.3800    0.0000 H   0  0  0  0  0  0  0  0  0  0  0  0
    3.8705    1.3800    0.0000 H   0  0  0  0  0  0  0  0  0  0  0  0
   16.7919    1.3800    0.0000 H   0  0  0  0  0  0  0  0  0  0  0  0
   15.9948    1.3800    0.0000 H   0  0  0  0  0  0  0  0  0  0  0  0
    3.0044   -0.0699    0.0000 H   0  0  0  0  0  0  0  0  0  0  0  0
    3.8015   -0.0699    0.0000 H   0  0  0  0  0  0  0  0  0  0  0  0
   14.9904   -0.9050    0.0000 H   0  0  0  0  0  0  0  0  0  0  0  0
    2.0000    0.5950    0.0000 H   0  0  0  0  0  0  0  0  0  0  0  0
   18.6623    0.5950    0.0000 H   0  0  0  0  0  0  0  0  0  0  0  0
 17  1  1  6  0  0  0
  1 53  1  0  0  0  0
  2 20  1  0  0  0  0
  2 54  1  0  0  0  0
  3 21  1  0  0  0  0
  3 55  1  0  0  0  0
  4 21  2  0  0  0  0
  5  6  1  0  0  0  0
  5  7  1  0  0  0  0
  5 22  1  0  0  0  0
  5 23  1  0  0  0  0
  6  8  1  0  0  0  0
  6 24  1  0  0  0  0
  6 25  1  0  0  0  0
  7  9  1  0  0  0  0
  7 26  1  0  0  0  0
  7 27  1  0  0  0  0
  8 10  1  0  0  0  0
  8 28  1  0  0  0  0
  8 29  1  0  0  0  0
  9 11  1  0  0  0  0
  9 30  1  0  0  0  0
  9 31  1  0  0  0  0
 10 12  1  0  0  0  0
 10 32  1  0  0  0  0
 10 33  1  0  0  0  0
 11 13  1  0  0  0  0
 11 34  1  0  0  0  0
 11 35  1  0  0  0  0
 12 15  1  0  0  0  0
 12 36  1  0  0  0  0
 12 37  1  0  0  0  0
 13 14  1  0  0  0  0
 13 38  1  0  0  0  0
 13 39  1  0  0  0  0
 14 16  1  0  0  0  0
 14 40  1  0  0  0  0
 14 41  1  0  0  0  0
 15 17  1  0  0  0  0
 15 42  1  0  0  0  0
 15 43  1  0  0  0  0
 16 18  1  0  0  0  0
 16 44  1  0  0  0  0
 16 45  1  0  0  0  0
 17 19  1  0  0  0  0
 17 46  1  0  0  0  0
 18 20  1  0  0  0  0
 18 47  1  0  0  0  0
 18 48  1  0  0  0  0
 19 21  1  0  0  0  0
 19 49  1  0  0  0  0
 19 50  1  0  0  0  0
 20 51  1  0  0  0  0
 20 52  1  0  0  0  0
M  END
> <PUBCHEM_COMPOUND_CID>
86289868

> <PUBCHEM_COMPOUND_CANONICALIZED>
1

> <PUBCHEM_CACTVS_COMPLEXITY>
231

> <PUBCHEM_CACTVS_HBOND_ACCEPTOR>
4

> <PUBCHEM_CACTVS_HBOND_DONOR>
3

> <PUBCHEM_CACTVS_ROTATABLE_BOND>
16

> <PUBCHEM_CACTVS_SUBSKEYS>
AAADcfB4OAAAAAAAAAAAAAAAAAAAAAAAAAAAAAAAAAAAAAAAAAAAGgAACAAACBSggAIACAAAAgAIAACQCAAAAAAAAAAAAAEAAAAAEBYAAAAAQAAFIAAAAAGIyKCAAAAAAAAAAAAAAAAAAAAAAAAAAAAAAA==

> <PUBCHEM_IUPAC_OPENEYE_NAME>
(3R)-3,17-dihydroxyheptadecanoic acid

> <PUBCHEM_IUPAC_CAS_NAME>
(3R)-3,17-dihydroxyheptadecanoic acid

> <PUBCHEM_IUPAC_NAME_MARKUP>
(3<I>R</I>)-3,17-dihydroxyheptadecanoic acid

> <PUBCHEM_IUPAC_NAME>
(3R)-3,17-dihydroxyheptadecanoic acid

> <PUBCHEM_IUPAC_SYSTEMATIC_NAME>
(3R)-3,17-bis(oxidanyl)heptadecanoic acid

> <PUBCHEM_IUPAC_TRADITIONAL_NAME>
(3R)-3,17-dihydroxyheptadecanoic acid

> <PUBCHEM_IUPAC_INCHI>
InChI=1S/C17H34O4/c18-14-12-10-8-6-4-2-1-3-5-7-9-11-13-16(19)15-17(20)21/h16,18-19H,1-15H2,(H,20,21)/t16-/m1/s1

> <PUBCHEM_IUPAC_INCHIKEY>
HLFOBOFXSDRVQR-MRXNPFEDSA-N

> <PUBCHEM_XLOGP3_AA>
4.7

> <PUBCHEM_EXACT_MASS>
302.24570956

> <PUBCHEM_MOLECULAR_FORMULA>
C17H34O4

> <PUBCHEM_MOLECULAR_WEIGHT>
302.4

> <PUBCHEM_OPENEYE_CAN_SMILES>
C(CCCCCCCO)CCCCCCC(CC(=O)O)O

> <PUBCHEM_OPENEYE_ISO_SMILES>
C(CCCCCCCO)CCCCCC[C@H](CC(=O)O)O

> <PUBCHEM_CACTVS_TPSA>
77.8

> <PUBCHEM_MONOISOTOPIC_WEIGHT>
302.24570956

> <PUBCHEM_TOTAL_CHARGE>
0

> <PUBCHEM_HEAVY_ATOM_COUNT>
21

> <PUBCHEM_ATOM_DEF_STEREO_COUNT>
1

> <PUBCHEM_ATOM_UDEF_STEREO_COUNT>
0

> <PUBCHEM_BOND_DEF_STEREO_COUNT>
0

> <PUBCHEM_BOND_UDEF_STEREO_COUNT>
0

> <PUBCHEM_ISOTOPIC_ATOM_COUNT>
0

> <PUBCHEM_COMPONENT_COUNT>
1

> <PUBCHEM_CACTVS_TAUTO_COUNT>
-1

> <PUBCHEM_COORDINATE_TYPE>
1
5
255

> <PUBCHEM_BONDANNOTATIONS>
17  1  6

$$$$
