 
  -OEChem-10192104142D

 41 40  0     0  0  0  0  0  0999 V2000
    7.7331    0.7500    0.0000 O   0  0  0  0  0  0  0  0  0  0  0  0
   10.3312    0.2500    0.0000 O   0  0  0  0  0  0  0  0  0  0  0  0
   12.9292    0.7500    0.0000 O   0  0  0  0  0  0  0  0  0  0  0  0
    2.5369    0.7500    0.0000 O   0  0  0  0  0  0  0  0  0  0  0  0
    3.4030   -0.7500    0.0000 O   0  0  0  0  0  0  0  0  0  0  0  0
    6.0010    0.7500    0.0000 C   0  0  0  0  0  0  0  0  0  0  0  0
    5.1350    0.2500    0.0000 C   0  0  0  0  0  0  0  0  0  0  0  0
    6.8671    0.2500    0.0000 C   0  0  0  0  0  0  0  0  0  0  0  0
    4.2690    0.7500    0.0000 C   0  0  0  0  0  0  0  0  0  0  0  0
    8.5991    0.2500    0.0000 C   0  0  0  0  0  0  0  0  0  0  0  0
    9.4651    0.7500    0.0000 C   0  0  0  0  0  0  0  0  0  0  0  0
   11.1972    0.7500    0.0000 C   0  0  0  0  0  0  0  0  0  0  0  0
   12.0632    0.2500    0.0000 C   0  0  0  0  0  0  0  0  0  0  0  0
   13.7953    0.2500    0.0000 C   0  0  0  0  0  0  0  0  0  0  0  0
   14.6613    0.7500    0.0000 C   0  0  0  0  0  0  0  0  0  0  0  0
    3.4030    0.2500    0.0000 C   0  0  0  0  0  0  0  0  0  0  0  0
   15.5273    0.2500    0.0000 C   0  0  0  0  0  0  0  0  0  0  0  0
    6.3996    1.2250    0.0000 H   0  0  0  0  0  0  0  0  0  0  0  0
    5.6025    1.2250    0.0000 H   0  0  0  0  0  0  0  0  0  0  0  0
    4.7365   -0.2249    0.0000 H   0  0  0  0  0  0  0  0  0  0  0  0
    5.5335   -0.2249    0.0000 H   0  0  0  0  0  0  0  0  0  0  0  0
    6.4685   -0.2249    0.0000 H   0  0  0  0  0  0  0  0  0  0  0  0
    7.2656   -0.2249    0.0000 H   0  0  0  0  0  0  0  0  0  0  0  0
    4.6675    1.2250    0.0000 H   0  0  0  0  0  0  0  0  0  0  0  0
    3.8705    1.2250    0.0000 H   0  0  0  0  0  0  0  0  0  0  0  0
    8.2006   -0.2249    0.0000 H   0  0  0  0  0  0  0  0  0  0  0  0
    8.9976   -0.2249    0.0000 H   0  0  0  0  0  0  0  0  0  0  0  0
    9.8637    1.2250    0.0000 H   0  0  0  0  0  0  0  0  0  0  0  0
    9.0666    1.2250    0.0000 H   0  0  0  0  0  0  0  0  0  0  0  0
   11.5957    1.2250    0.0000 H   0  0  0  0  0  0  0  0  0  0  0  0
   10.7987    1.2250    0.0000 H   0  0  0  0  0  0  0  0  0  0  0  0
   11.6647   -0.2249    0.0000 H   0  0  0  0  0  0  0  0  0  0  0  0
   12.4617   -0.2249    0.0000 H   0  0  0  0  0  0  0  0  0  0  0  0
   13.3967   -0.2249    0.0000 H   0  0  0  0  0  0  0  0  0  0  0  0
   14.1938   -0.2249    0.0000 H   0  0  0  0  0  0  0  0  0  0  0  0
   15.0598    1.2250    0.0000 H   0  0  0  0  0  0  0  0  0  0  0  0
   14.2628    1.2250    0.0000 H   0  0  0  0  0  0  0  0  0  0  0  0
   15.2173   -0.2869    0.0000 H   0  0  0  0  0  0  0  0  0  0  0  0
   16.0643   -0.0600    0.0000 H   0  0  0  0  0  0  0  0  0  0  0  0
   15.8373    0.7869    0.0000 H   0  0  0  0  0  0  0  0  0  0  0  0
    2.0000    0.4400    0.0000 H   0  0  0  0  0  0  0  0  0  0  0  0
  1  8  1  0  0  0  0
  1 10  1  0  0  0  0
  2 11  1  0  0  0  0
  2 12  1  0  0  0  0
  3 13  1  0  0  0  0
  3 14  1  0  0  0  0
  4 16  1  0  0  0  0
  4 41  1  0  0  0  0
  5 16  2  0  0  0  0
  6  7  1  0  0  0  0
  6  8  1  0  0  0  0
  6 18  1  0  0  0  0
  6 19  1  0  0  0  0
  7  9  1  0  0  0  0
  7 20  1  0  0  0  0
  7 21  1  0  0  0  0
  8 22  1  0  0  0  0
  8 23  1  0  0  0  0
  9 16  1  0  0  0  0
  9 24  1  0  0  0  0
  9 25  1  0  0  0  0
 10 11  1  0  0  0  0
 10 26  1  0  0  0  0
 10 27  1  0  0  0  0
 11 28  1  0  0  0  0
 11 29  1  0  0  0  0
 12 13  1  0  0  0  0
 12 30  1  0  0  0  0
 12 31  1  0  0  0  0
 13 32  1  0  0  0  0
 13 33  1  0  0  0  0
 14 15  1  0  0  0  0
 14 34  1  0  0  0  0
 14 35  1  0  0  0  0
 15 17  1  0  0  0  0
 15 36  1  0  0  0  0
 15 37  1  0  0  0  0
 17 38  1  0  0  0  0
 17 39  1  0  0  0  0
 17 40  1  0  0  0  0
M  END
> <PUBCHEM_COMPOUND_CID>
137483459

> <PUBCHEM_COMPOUND_CANONICALIZED>
1

> <PUBCHEM_CACTVS_COMPLEXITY>
172

> <PUBCHEM_CACTVS_HBOND_ACCEPTOR>
5

> <PUBCHEM_CACTVS_HBOND_DONOR>
1

> <PUBCHEM_CACTVS_ROTATABLE_BOND>
13

> <PUBCHEM_CACTVS_SUBSKEYS>
AAADceBwOAAAAAAAAAAAAAAAAAAAAAAAAAAAAAAAAAAAAAAAAAAAGgAACAAACACggAICCAAABgAIAACQCAAAAAAAAAAAAAEAAAABABIAAAACQAAEAAACAACIJAgAAAAAAAAAAAAAAAAAAAAAAAAAAAAAAA==

> <PUBCHEM_IUPAC_OPENEYE_NAME>
5-[2-(2-propoxyethoxy)ethoxy]pentanoic acid

> <PUBCHEM_IUPAC_CAS_NAME>
5-[2-(2-propoxyethoxy)ethoxy]pentanoic acid

> <PUBCHEM_IUPAC_NAME_MARKUP>
5-[2-(2-propoxyethoxy)ethoxy]pentanoic acid

> <PUBCHEM_IUPAC_NAME>
5-[2-(2-propoxyethoxy)ethoxy]pentanoic acid

> <PUBCHEM_IUPAC_SYSTEMATIC_NAME>
5-[2-(2-propoxyethoxy)ethoxy]pentanoic acid

> <PUBCHEM_IUPAC_TRADITIONAL_NAME>
5-[2-(2-propoxyethoxy)ethoxy]valeric acid

> <PUBCHEM_IUPAC_INCHI>
InChI=1S/C12H24O5/c1-2-6-15-8-10-17-11-9-16-7-4-3-5-12(13)14/h2-11H2,1H3,(H,13,14)

> <PUBCHEM_IUPAC_INCHIKEY>
LGYBZHBKEKUETD-UHFFFAOYSA-N

> <PUBCHEM_XLOGP3_AA>
0.9

> <PUBCHEM_EXACT_MASS>
248.16237386

> <PUBCHEM_MOLECULAR_FORMULA>
C12H24O5

> <PUBCHEM_MOLECULAR_WEIGHT>
248.32

> <PUBCHEM_OPENEYE_CAN_SMILES>
CCCOCCOCCOCCCCC(=O)O

> <PUBCHEM_OPENEYE_ISO_SMILES>
CCCOCCOCCOCCCCC(=O)O

> <PUBCHEM_CACTVS_TPSA>
65

> <PUBCHEM_MONOISOTOPIC_WEIGHT>
248.16237386

> <PUBCHEM_TOTAL_CHARGE>
0

> <PUBCHEM_HEAVY_ATOM_COUNT>
17

> <PUBCHEM_ATOM_DEF_STEREO_COUNT>
0

> <PUBCHEM_ATOM_UDEF_STEREO_COUNT>
0

> <PUBCHEM_BOND_DEF_STEREO_COUNT>
0

> <PUBCHEM_BOND_UDEF_STEREO_COUNT>
0

> <PUBCHEM_ISOTOPIC_ATOM_COUNT>
0

> <PUBCHEM_COMPONENT_COUNT>
1

> <PUBCHEM_CACTVS_TAUTO_COUNT>
-1

> <PUBCHEM_COORDINATE_TYPE>
1
5
255

$$$$
