 
  -OEChem-10192103582D

 33 32  0     1  0  0  0  0  0999 V2000
    6.0010    0.2500    0.0000 O   0  0  0  0  0  0  0  0  0  0  0  0
    9.4651    0.2500    0.0000 O   0  0  0  0  0  0  0  0  0  0  0  0
    2.5369    0.2500    0.0000 O   0  0  0  0  0  0  0  0  0  0  0  0
    8.5991   -1.2500    0.0000 O   0  0  0  0  0  0  0  0  0  0  0  0
    3.4030   -1.2500    0.0000 O   0  0  0  0  0  0  0  0  0  0  0  0
    6.8671   -0.2500    0.0000 C   0  0  3  0  0  0  0  0  0  0  0  0
    5.1350   -0.2500    0.0000 C   0  0  3  0  0  0  0  0  0  0  0  0
    7.7331    0.2500    0.0000 C   0  0  3  0  0  0  0  0  0  0  0  0
    4.2690    0.2500    0.0000 C   0  0  3  0  0  0  0  0  0  0  0  0
    6.8671   -1.2500    0.0000 C   0  0  0  0  0  0  0  0  0  0  0  0
    5.1350   -1.2500    0.0000 C   0  0  0  0  0  0  0  0  0  0  0  0
    7.7331    1.2500    0.0000 C   0  0  0  0  0  0  0  0  0  0  0  0
    4.2690    1.2500    0.0000 C   0  0  0  0  0  0  0  0  0  0  0  0
    8.5991   -0.2500    0.0000 C   0  0  0  0  0  0  0  0  0  0  0  0
    3.4030   -0.2500    0.0000 C   0  0  0  0  0  0  0  0  0  0  0  0
    6.3301   -0.5600    0.0000 H   0  0  0  0  0  0  0  0  0  0  0  0
    5.1350    0.3700    0.0000 H   0  0  0  0  0  0  0  0  0  0  0  0
    8.2700    0.5600    0.0000 H   0  0  0  0  0  0  0  0  0  0  0  0
    3.7320    0.5600    0.0000 H   0  0  0  0  0  0  0  0  0  0  0  0
    6.2471   -1.2500    0.0000 H   0  0  0  0  0  0  0  0  0  0  0  0
    6.8671   -1.8700    0.0000 H   0  0  0  0  0  0  0  0  0  0  0  0
    7.4871   -1.2500    0.0000 H   0  0  0  0  0  0  0  0  0  0  0  0
    4.5150   -1.2500    0.0000 H   0  0  0  0  0  0  0  0  0  0  0  0
    5.1350   -1.8700    0.0000 H   0  0  0  0  0  0  0  0  0  0  0  0
    5.7550   -1.2500    0.0000 H   0  0  0  0  0  0  0  0  0  0  0  0
    8.3531    1.2500    0.0000 H   0  0  0  0  0  0  0  0  0  0  0  0
    7.7331    1.8700    0.0000 H   0  0  0  0  0  0  0  0  0  0  0  0
    7.1131    1.2500    0.0000 H   0  0  0  0  0  0  0  0  0  0  0  0
    4.8890    1.2500    0.0000 H   0  0  0  0  0  0  0  0  0  0  0  0
    4.2690    1.8700    0.0000 H   0  0  0  0  0  0  0  0  0  0  0  0
    3.6490    1.2500    0.0000 H   0  0  0  0  0  0  0  0  0  0  0  0
   10.0021   -0.0600    0.0000 H   0  0  0  0  0  0  0  0  0  0  0  0
    2.0000   -0.0600    0.0000 H   0  0  0  0  0  0  0  0  0  0  0  0
  1  6  1  0  0  0  0
  1  7  1  0  0  0  0
  2 14  1  0  0  0  0
  2 32  1  0  0  0  0
  3 15  1  0  0  0  0
  3 33  1  0  0  0  0
  4 14  2  0  0  0  0
  5 15  2  0  0  0  0
  6  8  1  0  0  0  0
  6 10  1  0  0  0  0
  6 16  1  0  0  0  0
  7  9  1  0  0  0  0
  7 11  1  0  0  0  0
  7 17  1  0  0  0  0
  8 12  1  0  0  0  0
  8 14  1  0  0  0  0
  8 18  1  0  0  0  0
  9 13  1  0  0  0  0
  9 15  1  0  0  0  0
  9 19  1  0  0  0  0
 10 20  1  0  0  0  0
 10 21  1  0  0  0  0
 10 22  1  0  0  0  0
 11 23  1  0  0  0  0
 11 24  1  0  0  0  0
 11 25  1  0  0  0  0
 12 26  1  0  0  0  0
 12 27  1  0  0  0  0
 12 28  1  0  0  0  0
 13 29  1  0  0  0  0
 13 30  1  0  0  0  0
 13 31  1  0  0  0  0
M  END
> <PUBCHEM_COMPOUND_CID>
90308398

> <PUBCHEM_COMPOUND_CANONICALIZED>
1

> <PUBCHEM_CACTVS_COMPLEXITY>
214

> <PUBCHEM_CACTVS_HBOND_ACCEPTOR>
5

> <PUBCHEM_CACTVS_HBOND_DONOR>
2

> <PUBCHEM_CACTVS_ROTATABLE_BOND>
6

> <PUBCHEM_CACTVS_SUBSKEYS>
AAADceBwOAAAAAAAAAAAAAAAAAAAAAAAAAAAAAAAAAAAAAAAAAAAGgAACAAADRSggAICCAAABgAIAACQCAAAAAAAAAAAAAEAAAAAABQAAAACQAAFIAAAAAAAAAAIAAAAAAAAAAAAAAAAAAAAAAAAAAAAAA==

> <PUBCHEM_IUPAC_OPENEYE_NAME>
3-(2-carboxy-1-methyl-propoxy)-2-methyl-butanoic acid

> <PUBCHEM_IUPAC_CAS_NAME>
3-(3-carboxybutan-2-yloxy)-2-methylbutanoic acid

> <PUBCHEM_IUPAC_NAME_MARKUP>
3-(3-carboxybutan-2-yloxy)-2-methylbutanoic acid

> <PUBCHEM_IUPAC_NAME>
3-(3-carboxybutan-2-yloxy)-2-methylbutanoic acid

> <PUBCHEM_IUPAC_SYSTEMATIC_NAME>
2-methyl-3-(3-methyl-4-oxidanyl-4-oxidanylidene-butan-2-yl)oxy-butanoic acid

> <PUBCHEM_IUPAC_TRADITIONAL_NAME>
3-(2-carboxy-1-methyl-propoxy)-2-methyl-butyric acid

> <PUBCHEM_IUPAC_INCHI>
InChI=1S/C10H18O5/c1-5(9(11)12)7(3)15-8(4)6(2)10(13)14/h5-8H,1-4H3,(H,11,12)(H,13,14)

> <PUBCHEM_IUPAC_INCHIKEY>
OIZLWYMCJNPDCH-UHFFFAOYSA-N

> <PUBCHEM_XLOGP3_AA>
1.1

> <PUBCHEM_EXACT_MASS>
218.11542367

> <PUBCHEM_MOLECULAR_FORMULA>
C10H18O5

> <PUBCHEM_MOLECULAR_WEIGHT>
218.25

> <PUBCHEM_OPENEYE_CAN_SMILES>
CC(C(C)OC(C)C(C)C(=O)O)C(=O)O

> <PUBCHEM_OPENEYE_ISO_SMILES>
CC(C(C)OC(C)C(C)C(=O)O)C(=O)O

> <PUBCHEM_CACTVS_TPSA>
83.8

> <PUBCHEM_MONOISOTOPIC_WEIGHT>
218.11542367

> <PUBCHEM_TOTAL_CHARGE>
0

> <PUBCHEM_HEAVY_ATOM_COUNT>
15

> <PUBCHEM_ATOM_DEF_STEREO_COUNT>
0

> <PUBCHEM_ATOM_UDEF_STEREO_COUNT>
4

> <PUBCHEM_BOND_DEF_STEREO_COUNT>
0

> <PUBCHEM_BOND_UDEF_STEREO_COUNT>
0

> <PUBCHEM_ISOTOPIC_ATOM_COUNT>
0

> <PUBCHEM_COMPONENT_COUNT>
1

> <PUBCHEM_CACTVS_TAUTO_COUNT>
-1

> <PUBCHEM_COORDINATE_TYPE>
1
5
255

> <PUBCHEM_BONDANNOTATIONS>
6  10  3
7  11  3
8  12  3
9  13  3

$$$$
