 
  -OEChem-10192103392D

 27 28  0     1  0  0  0  0  0999 V2000
    4.2690   -1.9796    0.0000 O   0  0  0  0  0  0  0  0  0  0  0  0
    4.2690    2.0204    0.0000 O   0  0  0  0  0  0  0  0  0  0  0  0
    6.0174   -2.0142    0.0000 O   0  0  0  0  0  0  0  0  0  0  0  0
    2.5369   -0.9796    0.0000 O   0  0  0  0  0  0  0  0  0  0  0  0
    2.5369    1.0204    0.0000 O   0  0  0  0  0  0  0  0  0  0  0  0
    5.1350   -0.4796    0.0000 C   0  0  0  0  0  0  0  0  0  0  0  0
    5.1350    0.5204    0.0000 C   0  0  0  0  0  0  0  0  0  0  0  0
    4.2690   -0.9796    0.0000 C   0  0  3  0  0  0  0  0  0  0  0  0
    4.2690    1.0204    0.0000 C   0  0  3  0  0  0  0  0  0  0  0  0
    6.0290   -1.0143    0.0000 C   0  0  3  0  0  0  0  0  0  0  0  0
    6.0290    1.0550    0.0000 C   0  0  0  0  0  0  0  0  0  0  0  0
    3.4030   -0.4796    0.0000 C   0  0  0  0  0  0  0  0  0  0  0  0
    3.4030    0.5204    0.0000 C   0  0  0  0  0  0  0  0  0  0  0  0
    6.9350   -0.5004    0.0000 C   0  0  0  0  0  0  0  0  0  0  0  0
    6.9350    0.5412    0.0000 C   0  0  0  0  0  0  0  0  0  0  0  0
    4.8059   -1.2896    0.0000 H   0  0  0  0  0  0  0  0  0  0  0  0
    4.8059    1.3304    0.0000 H   0  0  0  0  0  0  0  0  0  0  0  0
    5.4879   -1.3170    0.0000 H   0  0  0  0  0  0  0  0  0  0  0  0
    6.4226    1.5341    0.0000 H   0  0  0  0  0  0  0  0  0  0  0  0
    5.6244    1.5248    0.0000 H   0  0  0  0  0  0  0  0  0  0  0  0
    7.4708   -0.8125    0.0000 H   0  0  0  0  0  0  0  0  0  0  0  0
    7.4708    0.8533    0.0000 H   0  0  0  0  0  0  0  0  0  0  0  0
    3.7320   -2.2896    0.0000 H   0  0  0  0  0  0  0  0  0  0  0  0
    3.7320    2.3304    0.0000 H   0  0  0  0  0  0  0  0  0  0  0  0
    6.5507   -2.3304    0.0000 H   0  0  0  0  0  0  0  0  0  0  0  0
    2.0000   -0.6696    0.0000 H   0  0  0  0  0  0  0  0  0  0  0  0
    2.5369    1.6404    0.0000 H   0  0  0  0  0  0  0  0  0  0  0  0
  1  8  1  0  0  0  0
  1 23  1  0  0  0  0
  2  9  1  0  0  0  0
  2 24  1  0  0  0  0
  3 10  1  0  0  0  0
  3 25  1  0  0  0  0
  4 12  1  0  0  0  0
  4 26  1  0  0  0  0
  5 13  1  0  0  0  0
  5 27  1  0  0  0  0
  6  7  2  0  0  0  0
  6  8  1  0  0  0  0
  6 10  1  0  0  0  0
  7  9  1  0  0  0  0
  7 11  1  0  0  0  0
  8 12  1  0  0  0  0
  8 16  1  0  0  0  0
  9 13  1  0  0  0  0
  9 17  1  0  0  0  0
 10 14  1  0  0  0  0
 10 18  1  0  0  0  0
 11 15  1  0  0  0  0
 11 19  1  0  0  0  0
 11 20  1  0  0  0  0
 12 13  2  0  0  0  0
 14 15  2  0  0  0  0
 14 21  1  0  0  0  0
 15 22  1  0  0  0  0
M  END
> <PUBCHEM_COMPOUND_CID>
139260694

> <PUBCHEM_COMPOUND_CANONICALIZED>
1

> <PUBCHEM_CACTVS_COMPLEXITY>
379

> <PUBCHEM_CACTVS_HBOND_ACCEPTOR>
5

> <PUBCHEM_CACTVS_HBOND_DONOR>
5

> <PUBCHEM_CACTVS_ROTATABLE_BOND>
0

> <PUBCHEM_CACTVS_SUBSKEYS>
AAADccBwOAAAAAAAAAAAAAAAAAAAAAAAAAAgQAAAAAAAAACAAAAAGgAACAAADBSggAIAAAAAAgCAAiBCAAAAAAAgIAAICAAAAAgBFAIAAQAAUAAFwAAJEALAAAAAAAAAAAAAAAAAAAAAAAAAAAAAAAAAAA==

> <PUBCHEM_IUPAC_OPENEYE_NAME>
1,4,5,8-tetrahydronaphthalene-1,2,3,4,5-pentol

> <PUBCHEM_IUPAC_CAS_NAME>
1,4,5,8-tetrahydronaphthalene-1,2,3,4,5-pentol

> <PUBCHEM_IUPAC_NAME_MARKUP>
1,4,5,8-tetrahydronaphthalene-1,2,3,4,5-pentol

> <PUBCHEM_IUPAC_NAME>
1,4,5,8-tetrahydronaphthalene-1,2,3,4,5-pentol

> <PUBCHEM_IUPAC_SYSTEMATIC_NAME>
1,4,5,8-tetrahydronaphthalene-1,2,3,4,5-pentol

> <PUBCHEM_IUPAC_TRADITIONAL_NAME>
1,4,5,8-tetrahydronaphthalene-1,2,3,4,5-pentol

> <PUBCHEM_IUPAC_INCHI>
InChI=1S/C10H12O5/c11-5-3-1-2-4-6(5)8(13)10(15)9(14)7(4)12/h1,3,5,7-8,11-15H,2H2

> <PUBCHEM_IUPAC_INCHIKEY>
HJWFAWLCGMNQJZ-UHFFFAOYSA-N

> <PUBCHEM_XLOGP3_AA>
-2.3

> <PUBCHEM_EXACT_MASS>
212.06847348

> <PUBCHEM_MOLECULAR_FORMULA>
C10H12O5

> <PUBCHEM_MOLECULAR_WEIGHT>
212.20

> <PUBCHEM_OPENEYE_CAN_SMILES>
C1C=CC(C2=C1C(C(=C(C2O)O)O)O)O

> <PUBCHEM_OPENEYE_ISO_SMILES>
C1C=CC(C2=C1C(C(=C(C2O)O)O)O)O

> <PUBCHEM_CACTVS_TPSA>
101

> <PUBCHEM_MONOISOTOPIC_WEIGHT>
212.06847348

> <PUBCHEM_TOTAL_CHARGE>
0

> <PUBCHEM_HEAVY_ATOM_COUNT>
15

> <PUBCHEM_ATOM_DEF_STEREO_COUNT>
0

> <PUBCHEM_ATOM_UDEF_STEREO_COUNT>
3

> <PUBCHEM_BOND_DEF_STEREO_COUNT>
0

> <PUBCHEM_BOND_UDEF_STEREO_COUNT>
0

> <PUBCHEM_ISOTOPIC_ATOM_COUNT>
0

> <PUBCHEM_COMPONENT_COUNT>
1

> <PUBCHEM_CACTVS_TAUTO_COUNT>
-1

> <PUBCHEM_COORDINATE_TYPE>
1
5
255

> <PUBCHEM_BONDANNOTATIONS>
8  1  3
9  2  3
10  3  3

$$$$
