 
  -OEChem-10192104382D

 29 29  0     1  0  0  0  0  0999 V2000
    6.5010   -2.8380    0.0000 O   0  0  0  0  0  0  0  0  0  0  0  0
    2.5369    0.0280    0.0000 O   0  0  0  0  0  0  0  0  0  0  0  0
    3.4030   -1.4720    0.0000 O   0  0  0  0  0  0  0  0  0  0  0  0
    3.4030    2.5280    0.0000 O   0  0  0  0  0  0  0  0  0  0  0  0
    5.1350    2.5280    0.0000 O   0  0  0  0  0  0  0  0  0  0  0  0
    2.5369    1.0280    0.0000 O   0  0  0  0  0  0  0  0  0  0  0  0
    6.0010    1.0280    0.0000 O   0  0  0  0  0  0  0  0  0  0  0  0
    6.0010   -1.9720    0.0000 C   0  0  3  0  0  0  0  0  0  0  0  0
    5.1350   -1.4720    0.0000 C   0  0  0  0  0  0  0  0  0  0  0  0
    7.0010   -1.9720    0.0000 C   0  0  0  0  0  0  0  0  0  0  0  0
    5.1350   -0.4720    0.0000 C   0  0  3  0  0  0  0  0  0  0  0  0
    4.2690    0.0280    0.0000 C   0  0  0  0  0  0  0  0  0  0  0  0
    6.0010    0.0280    0.0000 C   0  0  0  0  0  0  0  0  0  0  0  0
    4.2690    1.0280    0.0000 C   0  0  0  0  0  0  0  0  0  0  0  0
    3.4030   -0.4720    0.0000 C   0  0  0  0  0  0  0  0  0  0  0  0
    3.4030    1.5280    0.0000 C   0  0  0  0  0  0  0  0  0  0  0  0
    5.1350    1.5280    0.0000 C   0  0  0  0  0  0  0  0  0  0  0  0
    5.5626   -2.4104    0.0000 H   0  0  0  0  0  0  0  0  0  0  0  0
    4.5244   -1.3643    0.0000 H   0  0  0  0  0  0  0  0  0  0  0  0
    4.9230   -2.0546    0.0000 H   0  0  0  0  0  0  0  0  0  0  0  0
    7.5836   -2.1840    0.0000 H   0  0  0  0  0  0  0  0  0  0  0  0
    7.1087   -1.3614    0.0000 H   0  0  0  0  0  0  0  0  0  0  0  0
    5.1350    0.1480    0.0000 H   0  0  0  0  0  0  0  0  0  0  0  0
    6.3110   -0.5089    0.0000 H   0  0  0  0  0  0  0  0  0  0  0  0
    6.5380    0.3380    0.0000 H   0  0  0  0  0  0  0  0  0  0  0  0
    5.6910    0.5649    0.0000 H   0  0  0  0  0  0  0  0  0  0  0  0
    2.0000   -0.2820    0.0000 H   0  0  0  0  0  0  0  0  0  0  0  0
    2.8660    2.8380    0.0000 H   0  0  0  0  0  0  0  0  0  0  0  0
    5.6720    2.8380    0.0000 H   0  0  0  0  0  0  0  0  0  0  0  0
  1  8  1  0  0  0  0
  1 10  1  0  0  0  0
  2 15  1  0  0  0  0
  2 27  1  0  0  0  0
  3 15  2  0  0  0  0
  4 16  1  0  0  0  0
  4 28  1  0  0  0  0
  5 17  1  0  0  0  0
  5 29  1  0  0  0  0
  6 16  2  0  0  0  0
  7 17  2  0  0  0  0
  8  9  1  0  0  0  0
  8 10  1  0  0  0  0
  8 18  1  0  0  0  0
  9 11  1  0  0  0  0
  9 19  1  0  0  0  0
  9 20  1  0  0  0  0
 10 21  1  0  0  0  0
 10 22  1  0  0  0  0
 11 12  1  0  0  0  0
 11 13  1  0  0  0  0
 11 23  1  0  0  0  0
 12 14  2  0  0  0  0
 12 15  1  0  0  0  0
 13 24  1  0  0  0  0
 13 25  1  0  0  0  0
 13 26  1  0  0  0  0
 14 16  1  0  0  0  0
 14 17  1  0  0  0  0
M  END
> <PUBCHEM_COMPOUND_CID>
53932660

> <PUBCHEM_COMPOUND_CANONICALIZED>
1

> <PUBCHEM_CACTVS_COMPLEXITY>
380

> <PUBCHEM_CACTVS_HBOND_ACCEPTOR>
7

> <PUBCHEM_CACTVS_HBOND_DONOR>
3

> <PUBCHEM_CACTVS_ROTATABLE_BOND>
6

> <PUBCHEM_CACTVS_SUBSKEYS>
AAADccBwOAAAAAAAAAAAAAAAEgAAAAAAAAAAAAAAAAAAAAAAAAAAGgAACAAADRSggAICCAAABgCIAgDQCAAAAAAgAAAACAEAAEgABBYIAAAAUAAFoAAIEQOIbAxOAAAAAAAAAAAAAAAAAAAAAAAAAAAAAA==

> <PUBCHEM_IUPAC_OPENEYE_NAME>
3-methyl-4-(oxiran-2-yl)but-1-ene-1,1,2-tricarboxylic acid

> <PUBCHEM_IUPAC_CAS_NAME>
3-methyl-4-(2-oxiranyl)-1-butene-1,1,2-tricarboxylic acid

> <PUBCHEM_IUPAC_NAME_MARKUP>
3-methyl-4-(oxiran-2-yl)but-1-ene-1,1,2-tricarboxylic acid

> <PUBCHEM_IUPAC_NAME>
3-methyl-4-(oxiran-2-yl)but-1-ene-1,1,2-tricarboxylic acid

> <PUBCHEM_IUPAC_SYSTEMATIC_NAME>
3-methyl-4-(oxiran-2-yl)but-1-ene-1,1,2-tricarboxylic acid

> <PUBCHEM_IUPAC_TRADITIONAL_NAME>
3-methyl-4-(oxiran-2-yl)but-1-ene-1,1,2-tricarboxylic acid

> <PUBCHEM_IUPAC_INCHI>
InChI=1S/C10H12O7/c1-4(2-5-3-17-5)6(8(11)12)7(9(13)14)10(15)16/h4-5H,2-3H2,1H3,(H,11,12)(H,13,14)(H,15,16)

> <PUBCHEM_IUPAC_INCHIKEY>
ISENIMCUFBKNJK-UHFFFAOYSA-N

> <PUBCHEM_XLOGP3_AA>
1

> <PUBCHEM_EXACT_MASS>
244.05830272

> <PUBCHEM_MOLECULAR_FORMULA>
C10H12O7

> <PUBCHEM_MOLECULAR_WEIGHT>
244.20

> <PUBCHEM_OPENEYE_CAN_SMILES>
CC(CC1CO1)C(=C(C(=O)O)C(=O)O)C(=O)O

> <PUBCHEM_OPENEYE_ISO_SMILES>
CC(CC1CO1)C(=C(C(=O)O)C(=O)O)C(=O)O

> <PUBCHEM_CACTVS_TPSA>
124

> <PUBCHEM_MONOISOTOPIC_WEIGHT>
244.05830272

> <PUBCHEM_TOTAL_CHARGE>
0

> <PUBCHEM_HEAVY_ATOM_COUNT>
17

> <PUBCHEM_ATOM_DEF_STEREO_COUNT>
0

> <PUBCHEM_ATOM_UDEF_STEREO_COUNT>
2

> <PUBCHEM_BOND_DEF_STEREO_COUNT>
0

> <PUBCHEM_BOND_UDEF_STEREO_COUNT>
0

> <PUBCHEM_ISOTOPIC_ATOM_COUNT>
0

> <PUBCHEM_COMPONENT_COUNT>
1

> <PUBCHEM_CACTVS_TAUTO_COUNT>
-1

> <PUBCHEM_COORDINATE_TYPE>
1
5
255

> <PUBCHEM_BONDANNOTATIONS>
11  13  3
8  9  3

$$$$
