 
  -OEChem-10192104032D

 73 77  0     1  0  0  0  0  0999 V2000
    4.5981    0.8100    0.0000 S   0  0  0  0  0  0  0  0  0  0  0  0
   12.0204    0.1455    0.0000 O   0  0  0  0  0  0  0  0  0  0  0  0
    2.8660   -0.1900    0.0000 O   0  0  0  0  0  0  0  0  0  0  0  0
    5.5981    0.8100    0.0000 O   0  0  0  0  0  0  0  0  0  0  0  0
    3.5981    0.8100    0.0000 O   0  0  0  0  0  0  0  0  0  0  0  0
    5.4641    2.3100    0.0000 O   0  0  0  0  0  0  0  0  0  0  0  0
    6.3301    3.8100    0.0000 O   0  0  0  0  0  0  0  0  0  0  0  0
    9.1128    0.0438    0.0000 N   0  0  0  0  0  0  0  0  0  0  0  0
    9.0084   -1.8853    0.0000 N   0  0  0  0  0  0  0  0  0  0  0  0
    9.0084   -3.4947    0.0000 N   0  0  0  0  0  0  0  0  0  0  0  0
   10.4580   -3.1900    0.0000 N   0  0  0  0  0  0  0  0  0  0  0  0
    3.7320   -1.6900    0.0000 N   0  0  0  0  0  0  0  0  0  0  0  0
    4.5981    1.8100    0.0000 N   0  0  3  0  0  0  0  0  0  0  0  0
   10.0634   -0.2669    0.0000 C   0  0  0  0  0  0  0  0  0  0  0  0
   10.7312   -1.0112    0.0000 C   0  0  0  0  0  0  0  0  0  0  0  0
   10.3740    0.6836    0.0000 C   0  0  0  0  0  0  0  0  0  0  0  0
    9.3191   -0.9347    0.0000 C   0  0  0  0  0  0  0  0  0  0  0  0
   11.7097   -0.8050    0.0000 C   0  0  0  0  0  0  0  0  0  0  0  0
   11.3525    0.8898    0.0000 C   0  0  0  0  0  0  0  0  0  0  0  0
    8.9066    1.0223    0.0000 C   0  0  0  0  0  0  0  0  0  0  0  0
    8.3685   -0.6241    0.0000 C   0  0  0  0  0  0  0  0  0  0  0  0
    8.0622   -2.1900    0.0000 C   0  0  0  0  0  0  0  0  0  0  0  0
    9.5920   -2.6900    0.0000 C   0  0  0  0  0  0  0  0  0  0  0  0
    8.0622   -3.1900    0.0000 C   0  0  0  0  0  0  0  0  0  0  0  0
    7.1962   -1.6900    0.0000 C   0  0  0  0  0  0  0  0  0  0  0  0
    7.1962   -3.6900    0.0000 C   0  0  0  0  0  0  0  0  0  0  0  0
    6.3301   -2.1900    0.0000 C   0  0  0  0  0  0  0  0  0  0  0  0
    6.3301   -3.1900    0.0000 C   0  0  0  0  0  0  0  0  0  0  0  0
    5.4641   -1.6900    0.0000 C   0  0  0  0  0  0  0  0  0  0  0  0
    5.4641   -0.6900    0.0000 C   0  0  0  0  0  0  0  0  0  0  0  0
    4.5981   -2.1900    0.0000 C   0  0  0  0  0  0  0  0  0  0  0  0
    4.5981   -0.1900    0.0000 C   0  0  0  0  0  0  0  0  0  0  0  0
    3.7320   -0.6900    0.0000 C   0  0  0  0  0  0  0  0  0  0  0  0
    3.7320    2.3100    0.0000 C   0  0  0  0  0  0  0  0  0  0  0  0
    2.0000   -0.6900    0.0000 C   0  0  0  0  0  0  0  0  0  0  0  0
    3.7320    3.3100    0.0000 C   0  0  0  0  0  0  0  0  0  0  0  0
    2.8660    1.8100    0.0000 C   0  0  0  0  0  0  0  0  0  0  0  0
    2.8660    3.8100    0.0000 C   0  0  0  0  0  0  0  0  0  0  0  0
    2.0000    2.3100    0.0000 C   0  0  0  0  0  0  0  0  0  0  0  0
    2.0000    3.3100    0.0000 C   0  0  0  0  0  0  0  0  0  0  0  0
    5.4641    3.3100    0.0000 C   0  0  0  0  0  0  0  0  0  0  0  0
   10.2048   -1.3389    0.0000 H   0  0  0  0  0  0  0  0  0  0  0  0
   10.9625   -1.5865    0.0000 H   0  0  0  0  0  0  0  0  0  0  0  0
   10.3535    1.3033    0.0000 H   0  0  0  0  0  0  0  0  0  0  0  0
    9.7602    0.7710    0.0000 H   0  0  0  0  0  0  0  0  0  0  0  0
    9.0878   -0.3595    0.0000 H   0  0  0  0  0  0  0  0  0  0  0  0
    9.8384   -1.2733    0.0000 H   0  0  0  0  0  0  0  0  0  0  0  0
   11.7303   -1.4246    0.0000 H   0  0  0  0  0  0  0  0  0  0  0  0
   12.3235   -0.8923    0.0000 H   0  0  0  0  0  0  0  0  0  0  0  0
   11.8789    1.2175    0.0000 H   0  0  0  0  0  0  0  0  0  0  0  0
   11.1213    1.4651    0.0000 H   0  0  0  0  0  0  0  0  0  0  0  0
    9.5133    1.1501    0.0000 H   0  0  0  0  0  0  0  0  0  0  0  0
    8.7788    1.6289    0.0000 H   0  0  0  0  0  0  0  0  0  0  0  0
    8.3000    0.8944    0.0000 H   0  0  0  0  0  0  0  0  0  0  0  0
    7.9545   -0.1626    0.0000 H   0  0  0  0  0  0  0  0  0  0  0  0
    7.9071   -1.0381    0.0000 H   0  0  0  0  0  0  0  0  0  0  0  0
    8.7826   -1.0856    0.0000 H   0  0  0  0  0  0  0  0  0  0  0  0
    7.1962   -1.0700    0.0000 H   0  0  0  0  0  0  0  0  0  0  0  0
    7.1962   -4.3100    0.0000 H   0  0  0  0  0  0  0  0  0  0  0  0
   10.4580   -3.8100    0.0000 H   0  0  0  0  0  0  0  0  0  0  0  0
   10.9950   -2.8800    0.0000 H   0  0  0  0  0  0  0  0  0  0  0  0
    5.7932   -3.5000    0.0000 H   0  0  0  0  0  0  0  0  0  0  0  0
    6.0010   -0.3800    0.0000 H   0  0  0  0  0  0  0  0  0  0  0  0
    4.5981   -2.8100    0.0000 H   0  0  0  0  0  0  0  0  0  0  0  0
    4.2690    3.6200    0.0000 H   0  0  0  0  0  0  0  0  0  0  0  0
    2.8660    1.1900    0.0000 H   0  0  0  0  0  0  0  0  0  0  0  0
    1.6900   -0.1531    0.0000 H   0  0  0  0  0  0  0  0  0  0  0  0
    1.4631   -1.0000    0.0000 H   0  0  0  0  0  0  0  0  0  0  0  0
    2.3100   -1.2269    0.0000 H   0  0  0  0  0  0  0  0  0  0  0  0
    2.8660    4.4300    0.0000 H   0  0  0  0  0  0  0  0  0  0  0  0
    1.4631    2.0000    0.0000 H   0  0  0  0  0  0  0  0  0  0  0  0
    1.4631    3.6200    0.0000 H   0  0  0  0  0  0  0  0  0  0  0  0
    4.9272    3.6200    0.0000 H   0  0  0  0  0  0  0  0  0  0  0  0
  1  4  2  0  0  0  0
  1  5  2  0  0  0  0
  1 13  1  0  0  0  0
  1 32  1  0  0  0  0
  2 18  1  0  0  0  0
  2 19  1  0  0  0  0
  3 33  1  0  0  0  0
  3 35  1  0  0  0  0
  6 13  1  0  0  0  0
  6 41  1  0  0  0  0
  7 41  2  0  0  0  0
  8 14  1  0  0  0  0
  8 20  1  0  0  0  0
  8 21  1  0  0  0  0
  9 17  1  0  0  0  0
  9 22  1  0  0  0  0
  9 23  1  0  0  0  0
 10 23  2  0  0  0  0
 10 24  1  0  0  0  0
 11 23  1  0  0  0  0
 11 60  1  0  0  0  0
 11 61  1  0  0  0  0
 12 31  2  0  0  0  0
 12 33  1  0  0  0  0
 13 34  1  0  0  0  0
 14 15  1  0  0  0  0
 14 16  1  0  0  0  0
 14 17  1  0  0  0  0
 15 18  1  0  0  0  0
 15 42  1  0  0  0  0
 15 43  1  0  0  0  0
 16 19  1  0  0  0  0
 16 44  1  0  0  0  0
 16 45  1  0  0  0  0
 17 46  1  0  0  0  0
 17 47  1  0  0  0  0
 18 48  1  0  0  0  0
 18 49  1  0  0  0  0
 19 50  1  0  0  0  0
 19 51  1  0  0  0  0
 20 52  1  0  0  0  0
 20 53  1  0  0  0  0
 20 54  1  0  0  0  0
 21 55  1  0  0  0  0
 21 56  1  0  0  0  0
 21 57  1  0  0  0  0
 22 24  2  0  0  0  0
 22 25  1  0  0  0  0
 24 26  1  0  0  0  0
 25 27  2  0  0  0  0
 25 58  1  0  0  0  0
 26 28  2  0  0  0  0
 26 59  1  0  0  0  0
 27 28  1  0  0  0  0
 27 29  1  0  0  0  0
 28 62  1  0  0  0  0
 29 30  2  0  0  0  0
 29 31  1  0  0  0  0
 30 32  1  0  0  0  0
 30 63  1  0  0  0  0
 31 64  1  0  0  0  0
 32 33  2  0  0  0  0
 34 36  2  0  0  0  0
 34 37  1  0  0  0  0
 35 67  1  0  0  0  0
 35 68  1  0  0  0  0
 35 69  1  0  0  0  0
 36 38  1  0  0  0  0
 36 65  1  0  0  0  0
 37 39  2  0  0  0  0
 37 66  1  0  0  0  0
 38 40  2  0  0  0  0
 38 70  1  0  0  0  0
 39 40  1  0  0  0  0
 39 71  1  0  0  0  0
 40 72  1  0  0  0  0
 41 73  1  0  0  0  0
M  END
> <PUBCHEM_COMPOUND_CID>
89287582

> <PUBCHEM_COMPOUND_CANONICALIZED>
1

> <PUBCHEM_CACTVS_COMPLEXITY>
970

> <PUBCHEM_CACTVS_HBOND_ACCEPTOR>
11

> <PUBCHEM_CACTVS_HBOND_DONOR>
1

> <PUBCHEM_CACTVS_ROTATABLE_BOND>
10

> <PUBCHEM_CACTVS_SUBSKEYS>
AAADcfB7uABAAAAAAAAAAAAAAAAAAWAAAAA8aIEAAAAAAFgB/AAAHgQUQAAADIjh3gc/3bdcFAKoAzRn7HDCiD0xMqAp2D48fJiMbuLEuZuWMChuwBPI6Cew0PAOiAAAQAAAACAQAACAAAAAQAAAAAAAAA==

> <PUBCHEM_IUPAC_OPENEYE_NAME>
[N-[[5-[2-amino-3-[[4-(dimethylamino)tetrahydropyran-4-yl]methyl]benzimidazol-5-yl]-2-methoxy-3-pyridyl]sulfonyl]anilino] formate

> <PUBCHEM_IUPAC_CAS_NAME>
formic acid [N-[[5-[2-amino-3-[[4-(dimethylamino)-4-oxanyl]methyl]-5-benzimidazolyl]-2-methoxy-3-pyridinyl]sulfonyl]anilino] ester

> <PUBCHEM_IUPAC_NAME_MARKUP>
(<I>N</I>-[5-[2-amino-3-[[4-(dimethylamino)oxan-4-yl]methyl]benzimidazol-5-yl]-2-methoxypyridin-3-yl]sulfonylanilino) formate

> <PUBCHEM_IUPAC_NAME>
(N-[5-[2-amino-3-[[4-(dimethylamino)oxan-4-yl]methyl]benzimidazol-5-yl]-2-methoxypyridin-3-yl]sulfonylanilino) formate

> <PUBCHEM_IUPAC_SYSTEMATIC_NAME>
[[5-[2-azanyl-3-[[4-(dimethylamino)oxan-4-yl]methyl]benzimidazol-5-yl]-2-methoxy-pyridin-3-yl]sulfonyl-phenyl-amino] methanoate

> <PUBCHEM_IUPAC_TRADITIONAL_NAME>
formic acid [N-[[5-[2-amino-3-[[4-(dimethylamino)tetrahydropyran-4-yl]methyl]benzimidazol-5-yl]-2-methoxy-3-pyridyl]sulfonyl]anilino] ester

> <PUBCHEM_IUPAC_INCHI>
InChI=1S/C28H32N6O6S/c1-32(2)28(11-13-39-14-12-28)18-33-24-15-20(9-10-23(24)31-27(33)29)21-16-25(26(38-3)30-17-21)41(36,37)34(40-19-35)22-7-5-4-6-8-22/h4-10,15-17,19H,11-14,18H2,1-3H3,(H2,29,31)

> <PUBCHEM_IUPAC_INCHIKEY>
GBYIVKHOZFWNIN-UHFFFAOYSA-N

> <PUBCHEM_XLOGP3_AA>
3

> <PUBCHEM_EXACT_MASS>
580.21040394

> <PUBCHEM_MOLECULAR_FORMULA>
C28H32N6O6S

> <PUBCHEM_MOLECULAR_WEIGHT>
580.7

> <PUBCHEM_OPENEYE_CAN_SMILES>
CN(C)C1(CCOCC1)CN2C3=C(C=CC(=C3)C4=CC(=C(N=C4)OC)S(=O)(=O)N(C5=CC=CC=C5)OC=O)N=C2N

> <PUBCHEM_OPENEYE_ISO_SMILES>
CN(C)C1(CCOCC1)CN2C3=C(C=CC(=C3)C4=CC(=C(N=C4)OC)S(=O)(=O)N(C5=CC=CC=C5)OC=O)N=C2N

> <PUBCHEM_CACTVS_TPSA>
151

> <PUBCHEM_MONOISOTOPIC_WEIGHT>
580.21040394

> <PUBCHEM_TOTAL_CHARGE>
0

> <PUBCHEM_HEAVY_ATOM_COUNT>
41

> <PUBCHEM_ATOM_DEF_STEREO_COUNT>
0

> <PUBCHEM_ATOM_UDEF_STEREO_COUNT>
0

> <PUBCHEM_BOND_DEF_STEREO_COUNT>
0

> <PUBCHEM_BOND_UDEF_STEREO_COUNT>
0

> <PUBCHEM_ISOTOPIC_ATOM_COUNT>
0

> <PUBCHEM_COMPONENT_COUNT>
1

> <PUBCHEM_CACTVS_TAUTO_COUNT>
-1

> <PUBCHEM_COORDINATE_TYPE>
1
5
255

> <PUBCHEM_BONDANNOTATIONS>
10  23  8
10  24  8
12  31  8
12  33  8
22  24  8
22  25  8
24  26  8
25  27  8
26  28  8
27  28  8
29  30  8
29  31  8
30  32  8
32  33  8
34  36  8
34  37  8
36  38  8
37  39  8
38  40  8
39  40  8
9  22  8
9  23  8

$$$$
