 
  -OEChem-10192104052D

 66 68  0     1  0  0  0  0  0999 V2000
    6.8671   -2.5950    0.0000 O   0  0  0  0  0  0  0  0  0  0  0  0
    5.1350   -0.5950    0.0000 O   0  0  0  0  0  0  0  0  0  0  0  0
    7.7331   -1.0950    0.0000 O   0  0  0  0  0  0  0  0  0  0  0  0
    5.1350   -3.5950    0.0000 O   0  0  0  0  0  0  0  0  0  0  0  0
    6.8671   -0.5950    0.0000 O   0  0  0  0  0  0  0  0  0  0  0  0
    3.4030   -2.5950    0.0000 O   0  0  0  0  0  0  0  0  0  0  0  0
    8.5991   -3.5950    0.0000 O   0  0  0  0  0  0  0  0  0  0  0  0
   10.3312   -2.5950    0.0000 O   0  0  0  0  0  0  0  0  0  0  0  0
   10.3312   -0.5950    0.0000 O   0  0  0  0  0  0  0  0  0  0  0  0
    2.5369   -1.0950    0.0000 O   0  0  0  0  0  0  0  0  0  0  0  0
    8.5991    2.4050    0.0000 O   0  0  0  0  0  0  0  0  0  0  0  0
    5.1350    2.4050    0.0000 O   0  0  0  0  0  0  0  0  0  0  0  0
    6.8671    3.4050    0.0000 O   0  0  0  0  0  0  0  0  0  0  0  0
    6.0010   -2.0950    0.0000 C   0  0  2  0  0  0  0  0  0  0  0  0
    5.1350   -2.5950    0.0000 C   0  0  2  0  0  0  0  0  0  0  0  0
    4.2690   -2.0950    0.0000 C   0  0  1  0  0  0  0  0  0  0  0  0
    7.7331   -2.0950    0.0000 C   0  0  2  0  0  0  0  0  0  0  0  0
    8.5991   -2.5950    0.0000 C   0  0  2  0  0  0  0  0  0  0  0  0
    6.0010   -1.0950    0.0000 C   0  0  1  0  0  0  0  0  0  0  0  0
    4.2690   -1.0950    0.0000 C   0  0  1  0  0  0  0  0  0  0  0  0
    9.4651   -2.0950    0.0000 C   0  0  2  0  0  0  0  0  0  0  0  0
    9.4651   -1.0950    0.0000 C   0  0  1  0  0  0  0  0  0  0  0  0
    8.5991   -0.5950    0.0000 C   0  0  1  0  0  0  0  0  0  0  0  0
    3.4030   -0.5950    0.0000 C   0  0  0  0  0  0  0  0  0  0  0  0
    8.5991    0.4050    0.0000 C   0  0  0  0  0  0  0  0  0  0  0  0
    6.8671    0.4050    0.0000 C   0  0  0  0  0  0  0  0  0  0  0  0
    6.0010    0.9050    0.0000 C   0  0  0  0  0  0  0  0  0  0  0  0
    7.7331    0.9050    0.0000 C   0  0  0  0  0  0  0  0  0  0  0  0
    7.7331    1.9050    0.0000 C   0  0  0  0  0  0  0  0  0  0  0  0
    6.0010    1.9050    0.0000 C   0  0  0  0  0  0  0  0  0  0  0  0
    6.8671    2.4050    0.0000 C   0  0  0  0  0  0  0  0  0  0  0  0
    8.5991    3.4050    0.0000 C   0  0  0  0  0  0  0  0  0  0  0  0
    4.2690    1.9050    0.0000 C   0  0  0  0  0  0  0  0  0  0  0  0
    6.0010    3.9050    0.0000 C   0  0  0  0  0  0  0  0  0  0  0  0
    6.0010   -2.7150    0.0000 H   0  0  0  0  0  0  0  0  0  0  0  0
    4.5981   -2.9050    0.0000 H   0  0  0  0  0  0  0  0  0  0  0  0
    4.2690   -2.7150    0.0000 H   0  0  0  0  0  0  0  0  0  0  0  0
    7.1962   -1.7850    0.0000 H   0  0  0  0  0  0  0  0  0  0  0  0
    8.0622   -2.9050    0.0000 H   0  0  0  0  0  0  0  0  0  0  0  0
    6.5380   -1.4050    0.0000 H   0  0  0  0  0  0  0  0  0  0  0  0
    4.2690   -0.4750    0.0000 H   0  0  0  0  0  0  0  0  0  0  0  0
    9.4651   -2.7150    0.0000 H   0  0  0  0  0  0  0  0  0  0  0  0
   10.0021   -1.4050    0.0000 H   0  0  0  0  0  0  0  0  0  0  0  0
    8.0622   -0.2850    0.0000 H   0  0  0  0  0  0  0  0  0  0  0  0
    3.8015   -0.1201    0.0000 H   0  0  0  0  0  0  0  0  0  0  0  0
    3.0044   -0.1201    0.0000 H   0  0  0  0  0  0  0  0  0  0  0  0
    9.2191    0.4050    0.0000 H   0  0  0  0  0  0  0  0  0  0  0  0
    8.5991    1.0250    0.0000 H   0  0  0  0  0  0  0  0  0  0  0  0
    7.9791    0.4050    0.0000 H   0  0  0  0  0  0  0  0  0  0  0  0
    4.5981   -3.9050    0.0000 H   0  0  0  0  0  0  0  0  0  0  0  0
    3.4030   -3.2150    0.0000 H   0  0  0  0  0  0  0  0  0  0  0  0
    9.1360   -3.9050    0.0000 H   0  0  0  0  0  0  0  0  0  0  0  0
   10.8681   -2.2850    0.0000 H   0  0  0  0  0  0  0  0  0  0  0  0
   10.3312    0.0250    0.0000 H   0  0  0  0  0  0  0  0  0  0  0  0
    2.0000   -0.7850    0.0000 H   0  0  0  0  0  0  0  0  0  0  0  0
    5.4641    0.5950    0.0000 H   0  0  0  0  0  0  0  0  0  0  0  0
    8.2700    0.5950    0.0000 H   0  0  0  0  0  0  0  0  0  0  0  0
    9.2191    3.4050    0.0000 H   0  0  0  0  0  0  0  0  0  0  0  0
    8.5991    4.0250    0.0000 H   0  0  0  0  0  0  0  0  0  0  0  0
    7.9791    3.4050    0.0000 H   0  0  0  0  0  0  0  0  0  0  0  0
    3.9590    2.4419    0.0000 H   0  0  0  0  0  0  0  0  0  0  0  0
    3.7320    1.5950    0.0000 H   0  0  0  0  0  0  0  0  0  0  0  0
    4.5790    1.3681    0.0000 H   0  0  0  0  0  0  0  0  0  0  0  0
    6.3110    4.4419    0.0000 H   0  0  0  0  0  0  0  0  0  0  0  0
    5.4641    4.2150    0.0000 H   0  0  0  0  0  0  0  0  0  0  0  0
    5.6910    3.3681    0.0000 H   0  0  0  0  0  0  0  0  0  0  0  0
 14  1  1  6  0  0  0
 17  1  1  6  0  0  0
  2 19  1  0  0  0  0
  2 20  1  0  0  0  0
  3 17  1  0  0  0  0
  3 23  1  0  0  0  0
 15  4  1  1  0  0  0
  4 50  1  0  0  0  0
 19  5  1  1  0  0  0
  5 26  1  0  0  0  0
 16  6  1  6  0  0  0
  6 51  1  0  0  0  0
 18  7  1  6  0  0  0
  7 52  1  0  0  0  0
 21  8  1  6  0  0  0
  8 53  1  0  0  0  0
 22  9  1  1  0  0  0
  9 54  1  0  0  0  0
 10 24  1  0  0  0  0
 10 55  1  0  0  0  0
 11 29  1  0  0  0  0
 11 32  1  0  0  0  0
 12 30  1  0  0  0  0
 12 33  1  0  0  0  0
 13 31  1  0  0  0  0
 13 34  1  0  0  0  0
 14 15  1  0  0  0  0
 14 19  1  0  0  0  0
 14 35  1  0  0  0  0
 15 16  1  0  0  0  0
 15 36  1  0  0  0  0
 16 20  1  0  0  0  0
 16 37  1  0  0  0  0
 17 18  1  0  0  0  0
 17 38  1  0  0  0  0
 18 21  1  0  0  0  0
 18 39  1  0  0  0  0
 19 40  1  0  0  0  0
 20 24  1  1  0  0  0
 20 41  1  0  0  0  0
 21 22  1  0  0  0  0
 21 42  1  0  0  0  0
 22 23  1  0  0  0  0
 22 43  1  0  0  0  0
 23 25  1  6  0  0  0
 23 44  1  0  0  0  0
 24 45  1  0  0  0  0
 24 46  1  0  0  0  0
 25 47  1  0  0  0  0
 25 48  1  0  0  0  0
 25 49  1  0  0  0  0
 26 27  2  0  0  0  0
 26 28  1  0  0  0  0
 27 30  1  0  0  0  0
 27 56  1  0  0  0  0
 28 29  2  0  0  0  0
 28 57  1  0  0  0  0
 29 31  1  0  0  0  0
 30 31  2  0  0  0  0
 32 58  1  0  0  0  0
 32 59  1  0  0  0  0
 32 60  1  0  0  0  0
 33 61  1  0  0  0  0
 33 62  1  0  0  0  0
 33 63  1  0  0  0  0
 34 64  1  0  0  0  0
 34 65  1  0  0  0  0
 34 66  1  0  0  0  0
M  END
> <PUBCHEM_COMPOUND_CID>
21579250

> <PUBCHEM_COMPOUND_CANONICALIZED>
1

> <PUBCHEM_CACTVS_COMPLEXITY>
612

> <PUBCHEM_CACTVS_HBOND_ACCEPTOR>
13

> <PUBCHEM_CACTVS_HBOND_DONOR>
6

> <PUBCHEM_CACTVS_ROTATABLE_BOND>
8

> <PUBCHEM_CACTVS_SUBSKEYS>
AAADcfB4PAAAAAAAAAAAAAAAAAAAAAAAAAA0SIAAAAAAAAABAAAAGgAACAAACBSwkAMyDoAABgCAACBCAAACCAAgIAAAiAAGiIgdNyKEMRqieCKlwBUPqAfAYAwAAQAACAAAQAACAAAQAACAAAAAAAAAAA==

> <PUBCHEM_IUPAC_OPENEYE_NAME>
(2S,3S,4S,5S,6R)-2-[(2S,3R,4S,5S,6R)-4,5-dihydroxy-6-(hydroxymethyl)-2-(3,4,5-trimethoxyphenoxy)tetrahydropyran-3-yl]oxy-6-methyl-tetrahydropyran-3,4,5-triol

> <PUBCHEM_IUPAC_CAS_NAME>
(2S,3S,4S,5S,6R)-2-[[(2S,3R,4S,5S,6R)-4,5-dihydroxy-6-(hydroxymethyl)-2-(3,4,5-trimethoxyphenoxy)-3-oxanyl]oxy]-6-methyloxane-3,4,5-triol

> <PUBCHEM_IUPAC_NAME_MARKUP>
(2<I>S</I>,3<I>S</I>,4<I>S</I>,5<I>S</I>,6<I>R</I>)-2-[(2<I>S</I>,3<I>R</I>,4<I>S</I>,5<I>S</I>,6<I>R</I>)-4,5-dihydroxy-6-(hydroxymethyl)-2-(3,4,5-trimethoxyphenoxy)oxan-3-yl]oxy-6-methyloxane-3,4,5-triol

> <PUBCHEM_IUPAC_NAME>
(2S,3S,4S,5S,6R)-2-[(2S,3R,4S,5S,6R)-4,5-dihydroxy-6-(hydroxymethyl)-2-(3,4,5-trimethoxyphenoxy)oxan-3-yl]oxy-6-methyloxane-3,4,5-triol

> <PUBCHEM_IUPAC_SYSTEMATIC_NAME>
(2S,3S,4S,5S,6R)-2-[(2S,3R,4S,5S,6R)-6-(hydroxymethyl)-4,5-bis(oxidanyl)-2-(3,4,5-trimethoxyphenoxy)oxan-3-yl]oxy-6-methyl-oxane-3,4,5-triol

> <PUBCHEM_IUPAC_TRADITIONAL_NAME>
(2S,3S,4S,5S,6R)-2-[(2S,3R,4S,5S,6R)-4,5-dihydroxy-6-methylol-2-(3,4,5-trimethoxyphenoxy)tetrahydropyran-3-yl]oxy-6-methyl-tetrahydropyran-3,4,5-triol

> <PUBCHEM_IUPAC_INCHI>
InChI=1S/C21H32O13/c1-8-13(23)15(25)17(27)20(31-8)34-19-16(26)14(24)12(7-22)33-21(19)32-9-5-10(28-2)18(30-4)11(6-9)29-3/h5-6,8,12-17,19-27H,7H2,1-4H3/t8-,12-,13-,14-,15+,16+,17+,19-,20+,21-/m1/s1

> <PUBCHEM_IUPAC_INCHIKEY>
UMVIMMXRSNKVKQ-KXJMNOJZSA-N

> <PUBCHEM_XLOGP3_AA>
-1.4

> <PUBCHEM_EXACT_MASS>
492.18429107

> <PUBCHEM_MOLECULAR_FORMULA>
C21H32O13

> <PUBCHEM_MOLECULAR_WEIGHT>
492.5

> <PUBCHEM_OPENEYE_CAN_SMILES>
CC1C(C(C(C(O1)OC2C(C(C(OC2OC3=CC(=C(C(=C3)OC)OC)OC)CO)O)O)O)O)O

> <PUBCHEM_OPENEYE_ISO_SMILES>
C[C@@H]1[C@H]([C@@H]([C@@H]([C@@H](O1)O[C@@H]2[C@H]([C@@H]([C@H](O[C@H]2OC3=CC(=C(C(=C3)OC)OC)OC)CO)O)O)O)O)O

> <PUBCHEM_CACTVS_TPSA>
186

> <PUBCHEM_MONOISOTOPIC_WEIGHT>
492.18429107

> <PUBCHEM_TOTAL_CHARGE>
0

> <PUBCHEM_HEAVY_ATOM_COUNT>
34

> <PUBCHEM_ATOM_DEF_STEREO_COUNT>
10

> <PUBCHEM_ATOM_UDEF_STEREO_COUNT>
0

> <PUBCHEM_BOND_DEF_STEREO_COUNT>
0

> <PUBCHEM_BOND_UDEF_STEREO_COUNT>
0

> <PUBCHEM_ISOTOPIC_ATOM_COUNT>
0

> <PUBCHEM_COMPONENT_COUNT>
1

> <PUBCHEM_CACTVS_TAUTO_COUNT>
-1

> <PUBCHEM_COORDINATE_TYPE>
1
5
255

> <PUBCHEM_BONDANNOTATIONS>
14  1  6
17  1  6
20  24  5
23  25  6
26  27  8
26  28  8
27  30  8
28  29  8
29  31  8
30  31  8
15  4  5
19  5  5
16  6  6
18  7  6
21  8  6
22  9  5

$$$$
