 
  -OEChem-10192104172D

 57 60  0     1  0  0  0  0  0999 V2000
    7.4044   -1.4089    0.0000 O   0  0  0  0  0  0  0  0  0  0  0  0
    8.7161    1.5991    0.0000 O   0  0  0  0  0  0  0  0  0  0  0  0
    3.8177    1.6618    0.0000 O   0  0  0  0  0  0  0  0  0  0  0  0
    2.3052   -2.3728    0.0000 O   0  0  0  0  0  0  0  0  0  0  0  0
    3.8128   -3.2256    0.0000 O   0  0  0  0  0  0  0  0  0  0  0  0
    6.5090    0.1181    0.0000 C   0  0  1  0  0  0  0  0  0  0  0  0
    5.6405    0.6138    0.0000 C   0  0  3  0  0  0  0  0  0  0  0  0
    4.7330    0.1024    0.0000 C   0  0  1  0  0  0  0  0  0  0  0  0
    7.1606    2.2686    0.0000 C   0  0  1  0  0  0  0  0  0  0  0  0
    6.4845    1.2995    0.0000 C   0  0  0  0  0  0  0  0  0  0  0  0
    4.7302   -0.9392    0.0000 C   0  0  3  0  0  0  0  0  0  0  0  0
    6.5302   -0.9233    0.0000 C   0  0  2  0  0  0  0  0  0  0  0  0
    7.4380    0.4881    0.0000 C   0  0  0  0  0  0  0  0  0  0  0  0
    5.4865    1.6019    0.0000 C   0  0  0  0  0  0  0  0  0  0  0  0
    7.7280    1.4451    0.0000 C   0  0  1  0  0  0  0  0  0  0  0  0
    5.6349   -1.4555    0.0000 C   0  0  0  0  0  0  0  0  0  0  0  0
    6.1630    2.3383    0.0000 C   0  0  0  0  0  0  0  0  0  0  0  0
    3.8034    0.6619    0.0000 C   0  0  2  0  0  0  0  0  0  0  0  0
    3.7975   -1.4936    0.0000 C   0  0  2  0  0  0  0  0  0  0  0  0
    4.7358    1.1024    0.0000 C   0  0  0  0  0  0  0  0  0  0  0  0
    2.8582    0.1292    0.0000 C   0  0  0  0  0  0  0  0  0  0  0  0
    2.8552   -0.9558    0.0000 C   0  0  0  0  0  0  0  0  0  0  0  0
    7.4506    3.2256    0.0000 C   0  0  0  0  0  0  0  0  0  0  0  0
    4.3052   -2.3552    0.0000 C   0  0  0  0  0  0  0  0  0  0  0  0
    3.3052   -2.3640    0.0000 C   0  0  0  0  0  0  0  0  0  0  0  0
    6.1510    0.9656    0.0000 H   0  0  0  0  0  0  0  0  0  0  0  0
    6.1103    1.7938    0.0000 H   0  0  0  0  0  0  0  0  0  0  0  0
    5.8988    1.0960    0.0000 H   0  0  0  0  0  0  0  0  0  0  0  0
    4.7357   -1.5592    0.0000 H   0  0  0  0  0  0  0  0  0  0  0  0
    6.5393   -1.5432    0.0000 H   0  0  0  0  0  0  0  0  0  0  0  0
    7.5335   -0.1245    0.0000 H   0  0  0  0  0  0  0  0  0  0  0  0
    8.0565    0.4448    0.0000 H   0  0  0  0  0  0  0  0  0  0  0  0
    5.1347    2.1124    0.0000 H   0  0  0  0  0  0  0  0  0  0  0  0
    4.9105    1.3725    0.0000 H   0  0  0  0  0  0  0  0  0  0  0  0
    8.1348    0.9772    0.0000 H   0  0  0  0  0  0  0  0  0  0  0  0
    5.2399   -1.9335    0.0000 H   0  0  0  0  0  0  0  0  0  0  0  0
    6.0382   -1.9264    0.0000 H   0  0  0  0  0  0  0  0  0  0  0  0
    6.3428    2.9317    0.0000 H   0  0  0  0  0  0  0  0  0  0  0  0
    5.6246    2.6456    0.0000 H   0  0  0  0  0  0  0  0  0  0  0  0
    4.3453    0.9631    0.0000 H   0  0  0  0  0  0  0  0  0  0  0  0
    5.3557    1.1007    0.0000 H   0  0  0  0  0  0  0  0  0  0  0  0
    4.7374    1.7224    0.0000 H   0  0  0  0  0  0  0  0  0  0  0  0
    4.1158    1.1041    0.0000 H   0  0  0  0  0  0  0  0  0  0  0  0
    2.6507    0.7135    0.0000 H   0  0  0  0  0  0  0  0  0  0  0  0
    2.2470    0.0248    0.0000 H   0  0  0  0  0  0  0  0  0  0  0  0
    2.2446   -0.8480    0.0000 H   0  0  0  0  0  0  0  0  0  0  0  0
    2.6446   -1.5389    0.0000 H   0  0  0  0  0  0  0  0  0  0  0  0
    8.0439    3.0458    0.0000 H   0  0  0  0  0  0  0  0  0  0  0  0
    7.6304    3.8189    0.0000 H   0  0  0  0  0  0  0  0  0  0  0  0
    6.8572    3.4054    0.0000 H   0  0  0  0  0  0  0  0  0  0  0  0
    3.7710   -2.6699    0.0000 H   0  0  0  0  0  0  0  0  0  0  0  0
    4.6199   -2.8893    0.0000 H   0  0  0  0  0  0  0  0  0  0  0  0
    4.8393   -2.0404    0.0000 H   0  0  0  0  0  0  0  0  0  0  0  0
    7.4147   -2.0288    0.0000 H   0  0  0  0  0  0  0  0  0  0  0  0
    8.9397    2.1774    0.0000 H   0  0  0  0  0  0  0  0  0  0  0  0
    3.2852    1.9794    0.0000 H   0  0  0  0  0  0  0  0  0  0  0  0
    2.0000   -2.9125    0.0000 H   0  0  0  0  0  0  0  0  0  0  0  0
 12  1  1  1  0  0  0
  1 54  1  0  0  0  0
 15  2  1  6  0  0  0
  2 55  1  0  0  0  0
 18  3  1  6  0  0  0
  3 56  1  0  0  0  0
  4 25  1  0  0  0  0
  4 57  1  0  0  0  0
  5 25  2  0  0  0  0
  6  7  1  0  0  0  0
  6 10  1  0  0  0  0
  6 12  1  0  0  0  0
  6 13  1  6  0  0  0
  7  8  1  0  0  0  0
  7 14  1  0  0  0  0
  7 26  1  0  0  0  0
  8 11  1  0  0  0  0
  8 18  1  0  0  0  0
  8 20  1  6  0  0  0
  9 10  1  0  0  0  0
  9 15  1  0  0  0  0
  9 17  1  0  0  0  0
  9 23  1  1  0  0  0
 10 27  1  0  0  0  0
 10 28  1  0  0  0  0
 11 16  1  0  0  0  0
 11 19  1  0  0  0  0
 11 29  1  0  0  0  0
 12 16  1  0  0  0  0
 12 30  1  0  0  0  0
 13 15  1  0  0  0  0
 13 31  1  0  0  0  0
 13 32  1  0  0  0  0
 14 17  1  0  0  0  0
 14 33  1  0  0  0  0
 14 34  1  0  0  0  0
 15 35  1  0  0  0  0
 16 36  1  0  0  0  0
 16 37  1  0  0  0  0
 17 38  1  0  0  0  0
 17 39  1  0  0  0  0
 18 21  1  0  0  0  0
 18 40  1  0  0  0  0
 19 22  1  0  0  0  0
 19 24  1  1  0  0  0
 19 25  1  0  0  0  0
 20 41  1  0  0  0  0
 20 42  1  0  0  0  0
 20 43  1  0  0  0  0
 21 22  1  0  0  0  0
 21 44  1  0  0  0  0
 21 45  1  0  0  0  0
 22 46  1  0  0  0  0
 22 47  1  0  0  0  0
 23 48  1  0  0  0  0
 23 49  1  0  0  0  0
 23 50  1  0  0  0  0
 24 51  1  0  0  0  0
 24 52  1  0  0  0  0
 24 53  1  0  0  0  0
M  END
> <PUBCHEM_COMPOUND_CID>
10020918

> <PUBCHEM_COMPOUND_CANONICALIZED>
1

> <PUBCHEM_CACTVS_COMPLEXITY>
607

> <PUBCHEM_CACTVS_HBOND_ACCEPTOR>
5

> <PUBCHEM_CACTVS_HBOND_DONOR>
4

> <PUBCHEM_CACTVS_ROTATABLE_BOND>
1

> <PUBCHEM_CACTVS_SUBSKEYS>
AAADcfB4OAAAAAAAAAAAAAAAAAAAAYAAAAAwYMAABgAAAADAAAAAGgAACAAADxSggAICCAAAAgAIAACQCAAAAAAAAAAAAAEAAAAAEBIAAAAAQAAEAAAAAAHI7PTPgAAAAAAAAADAAAYAADAAAYAABAAAAA==

> <PUBCHEM_IUPAC_OPENEYE_NAME>
(1S,2S,5R,8S,9S,13S,14R)-2,8,14-trihydroxy-5,9,13-trimethyl-tetracyclo[11.2.1.01,10.04,9]hexadecane-5-carboxylic acid

> <PUBCHEM_IUPAC_CAS_NAME>
(1S,2S,5R,8S,9S,13S,14R)-2,8,14-trihydroxy-5,9,13-trimethyl-5-tetracyclo[11.2.1.01,10.04,9]hexadecanecarboxylic acid

> <PUBCHEM_IUPAC_NAME_MARKUP>
(1<I>S</I>,2<I>S</I>,5<I>R</I>,8<I>S</I>,9<I>S</I>,13<I>S</I>,14<I>R</I>)-2,8,14-trihydroxy-5,9,13-trimethyltetracyclo[11.2.1.0<SUP>1,10</SUP>.0<SUP>4,9</SUP>]hexadecane-5-carboxylic acid

> <PUBCHEM_IUPAC_NAME>
(1S,2S,5R,8S,9S,13S,14R)-2,8,14-trihydroxy-5,9,13-trimethyltetracyclo[11.2.1.01,10.04,9]hexadecane-5-carboxylic acid

> <PUBCHEM_IUPAC_SYSTEMATIC_NAME>
(1S,2S,5R,8S,9S,13S,14R)-5,9,13-trimethyl-2,8,14-tris(oxidanyl)tetracyclo[11.2.1.01,10.04,9]hexadecane-5-carboxylic acid

> <PUBCHEM_IUPAC_TRADITIONAL_NAME>
(1S,2S,5R,8S,9S,13S,14R)-2,8,14-trihydroxy-5,9,13-trimethyl-tetracyclo[11.2.1.01,10.04,9]hexadecane-5-carboxylic acid

> <PUBCHEM_IUPAC_INCHI>
InChI=1S/C20H32O5/c1-17-6-4-11-19(3)12(18(2,16(24)25)7-5-13(19)21)8-14(22)20(11,10-17)9-15(17)23/h11-15,21-23H,4-10H2,1-3H3,(H,24,25)/t11?,12?,13-,14-,15+,17-,18+,19-,20+/m0/s1

> <PUBCHEM_IUPAC_INCHIKEY>
NYRFZRWLBBWATR-WPMHZPQNSA-N

> <PUBCHEM_XLOGP3_AA>
2

> <PUBCHEM_EXACT_MASS>
352.22497412

> <PUBCHEM_MOLECULAR_FORMULA>
C20H32O5

> <PUBCHEM_MOLECULAR_WEIGHT>
352.5

> <PUBCHEM_OPENEYE_CAN_SMILES>
CC12CCC3C4(C(CCC(C4CC(C3(C1)CC2O)O)(C)C(=O)O)O)C

> <PUBCHEM_OPENEYE_ISO_SMILES>
C[C@]12CCC3[C@@]4([C@H](CC[C@@](C4C[C@@H]([C@@]3(C1)C[C@H]2O)O)(C)C(=O)O)O)C

> <PUBCHEM_CACTVS_TPSA>
98

> <PUBCHEM_MONOISOTOPIC_WEIGHT>
352.22497412

> <PUBCHEM_TOTAL_CHARGE>
0

> <PUBCHEM_HEAVY_ATOM_COUNT>
25

> <PUBCHEM_ATOM_DEF_STEREO_COUNT>
7

> <PUBCHEM_ATOM_UDEF_STEREO_COUNT>
2

> <PUBCHEM_BOND_DEF_STEREO_COUNT>
0

> <PUBCHEM_BOND_UDEF_STEREO_COUNT>
0

> <PUBCHEM_ISOTOPIC_ATOM_COUNT>
0

> <PUBCHEM_COMPONENT_COUNT>
1

> <PUBCHEM_CACTVS_TAUTO_COUNT>
-1

> <PUBCHEM_COORDINATE_TYPE>
1
5
255

> <PUBCHEM_BONDANNOTATIONS>
12  1  5
11  16  3
19  24  5
15  2  6
18  3  6
6  13  6
7  14  3
8  20  6
9  23  5

$$$$
