 
  -OEChem-10192104352D

 66 68  0     1  0  0  0  0  0999 V2000
    6.8671   -0.8021    0.0000 O   0  0  0  0  0  0  0  0  0  0  0  0
    9.4651   -0.3021    0.0000 O   0  0  0  0  0  0  0  0  0  0  0  0
    6.0010   -2.3021    0.0000 O   0  0  0  0  0  0  0  0  0  0  0  0
    8.6561    1.2857    0.0000 O   0  0  0  0  0  0  0  0  0  0  0  0
    4.2690   -0.3021    0.0000 O   0  0  0  0  0  0  0  0  0  0  0  0
    9.4651   -2.3021    0.0000 O   0  0  0  0  0  0  0  0  0  0  0  0
    7.7331   -3.3021    0.0000 O   0  0  0  0  0  0  0  0  0  0  0  0
    4.2690   -3.3021    0.0000 O   0  0  0  0  0  0  0  0  0  0  0  0
    6.0010   -0.3021    0.0000 O   0  0  0  0  0  0  0  0  0  0  0  0
   11.2252    0.9766    0.0000 O   0  0  0  0  0  0  0  0  0  0  0  0
    2.5369   -2.3021    0.0000 O   0  0  0  0  0  0  0  0  0  0  0  0
   10.5529    3.0457    0.0000 O   0  0  0  0  0  0  0  0  0  0  0  0
    2.5369    0.6979    0.0000 O   0  0  0  0  0  0  0  0  0  0  0  0
    7.3828    2.9412    0.0000 O   0  0  0  0  0  0  0  0  0  0  0  0
    8.5991   -0.8021    0.0000 C   0  0  2  0  0  0  0  0  0  0  0  0
    8.5991   -1.8021    0.0000 C   0  0  2  0  0  0  0  0  0  0  0  0
    7.7331   -2.3021    0.0000 C   0  0  2  0  0  0  0  0  0  0  0  0
    7.7331   -0.3021    0.0000 C   0  0  2  0  0  0  0  0  0  0  0  0
    6.8671   -1.8021    0.0000 C   0  0  1  0  0  0  0  0  0  0  0  0
    5.1350   -1.8021    0.0000 C   0  0  2  0  0  0  0  0  0  0  0  0
    4.2690   -2.3021    0.0000 C   0  0  2  0  0  0  0  0  0  0  0  0
    9.4651    0.6979    0.0000 C   0  0  2  0  0  0  0  0  0  0  0  0
   10.2742    1.2857    0.0000 C   0  0  1  0  0  0  0  0  0  0  0  0
    3.4030   -1.8021    0.0000 C   0  0  1  0  0  0  0  0  0  0  0  0
    5.1350   -0.8021    0.0000 C   0  0  1  0  0  0  0  0  0  0  0  0
    9.9651    2.2367    0.0000 C   0  0  2  0  0  0  0  0  0  0  0  0
    3.4030   -0.8021    0.0000 C   0  0  1  0  0  0  0  0  0  0  0  0
    8.9651    2.2367    0.0000 C   0  0  2  0  0  0  0  0  0  0  0  0
    7.7331    0.6979    0.0000 C   0  0  0  0  0  0  0  0  0  0  0  0
    2.5369   -0.3021    0.0000 C   0  0  0  0  0  0  0  0  0  0  0  0
    8.3774    3.0457    0.0000 C   0  0  0  0  0  0  0  0  0  0  0  0
    6.0010    0.6979    0.0000 C   0  0  0  0  0  0  0  0  0  0  0  0
    5.1350    1.1979    0.0000 C   0  0  0  0  0  0  0  0  0  0  0  0
    4.2690    1.6979    0.0000 C   0  0  0  0  0  0  0  0  0  0  0  0
    8.5991   -0.1821    0.0000 H   0  0  0  0  0  0  0  0  0  0  0  0
    9.1360   -1.4921    0.0000 H   0  0  0  0  0  0  0  0  0  0  0  0
    8.2700   -2.6121    0.0000 H   0  0  0  0  0  0  0  0  0  0  0  0
    7.1962    0.0079    0.0000 H   0  0  0  0  0  0  0  0  0  0  0  0
    6.8671   -2.4221    0.0000 H   0  0  0  0  0  0  0  0  0  0  0  0
    5.1350   -2.4221    0.0000 H   0  0  0  0  0  0  0  0  0  0  0  0
    3.7320   -2.6121    0.0000 H   0  0  0  0  0  0  0  0  0  0  0  0
    8.9127    0.4164    0.0000 H   0  0  0  0  0  0  0  0  0  0  0  0
   10.7126    1.7241    0.0000 H   0  0  0  0  0  0  0  0  0  0  0  0
    3.4030   -2.4221    0.0000 H   0  0  0  0  0  0  0  0  0  0  0  0
    5.1350   -0.1821    0.0000 H   0  0  0  0  0  0  0  0  0  0  0  0
   10.5775    2.1397    0.0000 H   0  0  0  0  0  0  0  0  0  0  0  0
    3.4030   -0.1821    0.0000 H   0  0  0  0  0  0  0  0  0  0  0  0
    8.3528    2.1397    0.0000 H   0  0  0  0  0  0  0  0  0  0  0  0
    8.3531    0.6979    0.0000 H   0  0  0  0  0  0  0  0  0  0  0  0
    7.7331    1.3179    0.0000 H   0  0  0  0  0  0  0  0  0  0  0  0
    7.1131    0.6979    0.0000 H   0  0  0  0  0  0  0  0  0  0  0  0
   10.0021   -1.9921    0.0000 H   0  0  0  0  0  0  0  0  0  0  0  0
    1.9264   -0.1945    0.0000 H   0  0  0  0  0  0  0  0  0  0  0  0
    2.3249   -0.8847    0.0000 H   0  0  0  0  0  0  0  0  0  0  0  0
    8.9346    3.3175    0.0000 H   0  0  0  0  0  0  0  0  0  0  0  0
    8.2065    3.6417    0.0000 H   0  0  0  0  0  0  0  0  0  0  0  0
    8.2700   -3.6121    0.0000 H   0  0  0  0  0  0  0  0  0  0  0  0
    3.7320   -3.6121    0.0000 H   0  0  0  0  0  0  0  0  0  0  0  0
   11.6860    1.3915    0.0000 H   0  0  0  0  0  0  0  0  0  0  0  0
    2.0000   -1.9921    0.0000 H   0  0  0  0  0  0  0  0  0  0  0  0
   10.3007    3.6121    0.0000 H   0  0  0  0  0  0  0  0  0  0  0  0
    6.6116    0.5902    0.0000 H   0  0  0  0  0  0  0  0  0  0  0  0
    6.2131    1.2805    0.0000 H   0  0  0  0  0  0  0  0  0  0  0  0
    2.0000    1.0079    0.0000 H   0  0  0  0  0  0  0  0  0  0  0  0
    7.0184    3.4428    0.0000 H   0  0  0  0  0  0  0  0  0  0  0  0
    3.7320    2.0079    0.0000 H   0  0  0  0  0  0  0  0  0  0  0  0
  1 18  1  0  0  0  0
  1 19  1  0  0  0  0
 15  2  1  6  0  0  0
 22  2  1  6  0  0  0
 19  3  1  6  0  0  0
 20  3  1  6  0  0  0
  4 22  1  0  0  0  0
  4 28  1  0  0  0  0
  5 25  1  0  0  0  0
  5 27  1  0  0  0  0
 16  6  1  1  0  0  0
  6 52  1  0  0  0  0
 17  7  1  1  0  0  0
  7 57  1  0  0  0  0
 21  8  1  1  0  0  0
  8 58  1  0  0  0  0
 25  9  1  1  0  0  0
  9 32  1  0  0  0  0
 23 10  1  1  0  0  0
 10 59  1  0  0  0  0
 24 11  1  6  0  0  0
 11 60  1  0  0  0  0
 26 12  1  6  0  0  0
 12 61  1  0  0  0  0
 13 30  1  0  0  0  0
 13 64  1  0  0  0  0
 14 31  1  0  0  0  0
 14 65  1  0  0  0  0
 15 16  1  0  0  0  0
 15 18  1  0  0  0  0
 15 35  1  0  0  0  0
 16 17  1  0  0  0  0
 16 36  1  0  0  0  0
 17 19  1  0  0  0  0
 17 37  1  0  0  0  0
 18 29  1  1  0  0  0
 18 38  1  0  0  0  0
 19 39  1  0  0  0  0
 20 21  1  0  0  0  0
 20 25  1  0  0  0  0
 20 40  1  0  0  0  0
 21 24  1  0  0  0  0
 21 41  1  0  0  0  0
 22 23  1  0  0  0  0
 22 42  1  0  0  0  0
 23 26  1  0  0  0  0
 23 43  1  0  0  0  0
 24 27  1  0  0  0  0
 24 44  1  0  0  0  0
 25 45  1  0  0  0  0
 26 28  1  0  0  0  0
 26 46  1  0  0  0  0
 27 30  1  1  0  0  0
 27 47  1  0  0  0  0
 28 31  1  1  0  0  0
 28 48  1  0  0  0  0
 29 49  1  0  0  0  0
 29 50  1  0  0  0  0
 29 51  1  0  0  0  0
 30 53  1  0  0  0  0
 30 54  1  0  0  0  0
 31 55  1  0  0  0  0
 31 56  1  0  0  0  0
 32 33  1  0  0  0  0
 32 62  1  0  0  0  0
 32 63  1  0  0  0  0
 33 34  3  0  0  0  0
 34 66  1  0  0  0  0
M  END
> <PUBCHEM_COMPOUND_CID>
102161565

> <PUBCHEM_COMPOUND_CANONICALIZED>
1

> <PUBCHEM_CACTVS_COMPLEXITY>
700

> <PUBCHEM_CACTVS_HBOND_ACCEPTOR>
14

> <PUBCHEM_CACTVS_HBOND_DONOR>
8

> <PUBCHEM_CACTVS_ROTATABLE_BOND>
8

> <PUBCHEM_CACTVS_SUBSKEYS>
AAADcfB4PAAAAAAAAAAAAAAAAAAAASAAAAAkSAAAAAAAAAAAAAAAGgAACAAACBSwgAMCCAAABgBAGAAAAAAAAAAAAAAAAAAAAAAREAIAAAAiQAAFAAAHAAHAYAwAAAAAAAAAAAAAAAAAAAAAAAAAAAAAAA==

> <PUBCHEM_IUPAC_OPENEYE_NAME>
(2S,3R,4S,5R,6S)-2-[(2R,3R,4S,5S,6R)-4,5-dihydroxy-6-(hydroxymethyl)-2-prop-2-ynoxy-tetrahydropyran-3-yl]oxy-5-[(2S,3R,4R,5S)-3,4-dihydroxy-5-(hydroxymethyl)tetrahydrofuran-2-yl]oxy-6-methyl-tetrahydropyran-3,4-diol

> <PUBCHEM_IUPAC_CAS_NAME>
(2S,3R,4S,5R,6S)-5-[[(2S,3R,4R,5S)-3,4-dihydroxy-5-(hydroxymethyl)-2-oxolanyl]oxy]-2-[[(2R,3R,4S,5S,6R)-4,5-dihydroxy-6-(hydroxymethyl)-2-prop-2-ynoxy-3-oxanyl]oxy]-6-methyloxane-3,4-diol

> <PUBCHEM_IUPAC_NAME_MARKUP>
(2<I>S</I>,3<I>R</I>,4<I>S</I>,5<I>R</I>,6<I>S</I>)-5-[(2<I>S</I>,3<I>R</I>,4<I>R</I>,5<I>S</I>)-3,4-dihydroxy-5-(hydroxymethyl)oxolan-2-yl]oxy-2-[(2<I>R</I>,3<I>R</I>,4<I>S</I>,5<I>S</I>,6<I>R</I>)-4,5-dihydroxy-6-(hydroxymethyl)-2-prop-2-ynoxyoxan-3-yl]oxy-6-methyloxane-3,4-diol

> <PUBCHEM_IUPAC_NAME>
(2S,3R,4S,5R,6S)-5-[(2S,3R,4R,5S)-3,4-dihydroxy-5-(hydroxymethyl)oxolan-2-yl]oxy-2-[(2R,3R,4S,5S,6R)-4,5-dihydroxy-6-(hydroxymethyl)-2-prop-2-ynoxyoxan-3-yl]oxy-6-methyloxane-3,4-diol

> <PUBCHEM_IUPAC_SYSTEMATIC_NAME>
(2S,3R,4S,5R,6S)-5-[(2S,3R,4R,5S)-5-(hydroxymethyl)-3,4-bis(oxidanyl)oxolan-2-yl]oxy-2-[(2R,3R,4S,5S,6R)-6-(hydroxymethyl)-4,5-bis(oxidanyl)-2-prop-2-ynoxy-oxan-3-yl]oxy-6-methyl-oxane-3,4-diol

> <PUBCHEM_IUPAC_TRADITIONAL_NAME>
(2S,3R,4S,5R,6S)-2-[(2R,3R,4S,5S,6R)-4,5-dihydroxy-6-methylol-2-propargyloxy-tetrahydropyran-3-yl]oxy-5-[(2S,3R,4R,5S)-3,4-dihydroxy-5-methylol-tetrahydrofuran-2-yl]oxy-6-methyl-tetrahydropyran-3,4-diol

> <PUBCHEM_IUPAC_INCHI>
InChI=1S/C20H32O14/c1-3-4-29-20-17(12(25)10(23)8(5-21)32-20)34-18-15(28)13(26)16(7(2)30-18)33-19-14(27)11(24)9(6-22)31-19/h1,7-28H,4-6H2,2H3/t7-,8+,9-,10+,11-,12-,13-,14+,15+,16-,17+,18-,19-,20+/m0/s1

> <PUBCHEM_IUPAC_INCHIKEY>
SEVWWBHYWBZSCG-ZZBPTKFISA-N

> <PUBCHEM_XLOGP3_AA>
-4

> <PUBCHEM_EXACT_MASS>
496.17920569

> <PUBCHEM_MOLECULAR_FORMULA>
C20H32O14

> <PUBCHEM_MOLECULAR_WEIGHT>
496.5

> <PUBCHEM_OPENEYE_CAN_SMILES>
CC1C(C(C(C(O1)OC2C(C(C(OC2OCC#C)CO)O)O)O)O)OC3C(C(C(O3)CO)O)O

> <PUBCHEM_OPENEYE_ISO_SMILES>
C[C@H]1[C@@H]([C@H]([C@H]([C@@H](O1)O[C@@H]2[C@H]([C@@H]([C@H](O[C@H]2OCC#C)CO)O)O)O)O)O[C@H]3[C@@H]([C@H]([C@@H](O3)CO)O)O

> <PUBCHEM_CACTVS_TPSA>
217

> <PUBCHEM_MONOISOTOPIC_WEIGHT>
496.17920569

> <PUBCHEM_TOTAL_CHARGE>
0

> <PUBCHEM_HEAVY_ATOM_COUNT>
34

> <PUBCHEM_ATOM_DEF_STEREO_COUNT>
14

> <PUBCHEM_ATOM_UDEF_STEREO_COUNT>
0

> <PUBCHEM_BOND_DEF_STEREO_COUNT>
0

> <PUBCHEM_BOND_UDEF_STEREO_COUNT>
0

> <PUBCHEM_ISOTOPIC_ATOM_COUNT>
0

> <PUBCHEM_COMPONENT_COUNT>
1

> <PUBCHEM_CACTVS_TAUTO_COUNT>
-1

> <PUBCHEM_COORDINATE_TYPE>
1
5
255

> <PUBCHEM_BONDANNOTATIONS>
23  10  5
24  11  6
26  12  6
18  29  5
15  2  6
22  2  6
27  30  5
28  31  5
19  3  6
20  3  6
16  6  5
17  7  5
21  8  5
25  9  5

$$$$
