 
  -OEChem-10192104412D

 28 29  0     1  0  0  0  0  0999 V2000
    4.2690    1.3170    0.0000 O   0  0  0  0  0  0  0  0  0  0  0  0
    3.4030   -2.1830    0.0000 O   0  0  0  0  0  0  0  0  0  0  0  0
    6.8671   -2.1830    0.0000 O   0  0  0  0  0  0  0  0  0  0  0  0
    2.5369   -0.6830    0.0000 O   0  0  0  0  0  0  0  0  0  0  0  0
    3.4030    0.8170    0.0000 O   0  0  0  0  0  0  0  0  0  0  0  0
    6.0010    1.3170    0.0000 C   0  0  0  0  0  0  0  0  0  0  0  0
    7.0010    1.3170    0.0000 C   0  0  0  0  0  0  0  0  0  0  0  0
    6.5010    2.1830    0.0000 C   0  0  0  0  0  0  0  0  0  0  0  0
    5.1350    0.8170    0.0000 C   0  0  0  0  0  0  0  0  0  0  0  0
    5.1350   -0.1830    0.0000 C   0  0  0  0  0  0  0  0  0  0  0  0
    4.2690   -0.6830    0.0000 C   0  0  3  0  0  0  0  0  0  0  0  0
    6.0010   -0.6830    0.0000 C   0  0  0  0  0  0  0  0  0  0  0  0
    4.2690   -1.6830    0.0000 C   0  0  0  0  0  0  0  0  0  0  0  0
    5.1350   -2.1830    0.0000 C   0  0  0  0  0  0  0  0  0  0  0  0
    6.0010   -1.6830    0.0000 C   0  0  0  0  0  0  0  0  0  0  0  0
    3.4030   -0.1830    0.0000 C   0  0  0  0  0  0  0  0  0  0  0  0
    6.1615    0.7181    0.0000 H   0  0  0  0  0  0  0  0  0  0  0  0
    7.1087    0.7064    0.0000 H   0  0  0  0  0  0  0  0  0  0  0  0
    7.5836    1.5290    0.0000 H   0  0  0  0  0  0  0  0  0  0  0  0
    6.9760    2.5815    0.0000 H   0  0  0  0  0  0  0  0  0  0  0  0
    6.0261    2.5815    0.0000 H   0  0  0  0  0  0  0  0  0  0  0  0
    4.2690   -0.0630    0.0000 H   0  0  0  0  0  0  0  0  0  0  0  0
    6.6116   -0.7907    0.0000 H   0  0  0  0  0  0  0  0  0  0  0  0
    6.2131   -0.1004    0.0000 H   0  0  0  0  0  0  0  0  0  0  0  0
    4.7365   -2.6580    0.0000 H   0  0  0  0  0  0  0  0  0  0  0  0
    5.5335   -2.6580    0.0000 H   0  0  0  0  0  0  0  0  0  0  0  0
    4.2690    1.9370    0.0000 H   0  0  0  0  0  0  0  0  0  0  0  0
    2.0000   -0.3730    0.0000 H   0  0  0  0  0  0  0  0  0  0  0  0
  1  9  1  0  0  0  0
  1 27  1  0  0  0  0
  2 13  2  0  0  0  0
  3 15  2  0  0  0  0
  4 16  1  0  0  0  0
  4 28  1  0  0  0  0
  5 16  2  0  0  0  0
  6  7  1  0  0  0  0
  6  8  1  0  0  0  0
  6  9  1  0  0  0  0
  6 17  1  0  0  0  0
  7  8  1  0  0  0  0
  7 18  1  0  0  0  0
  7 19  1  0  0  0  0
  8 20  1  0  0  0  0
  8 21  1  0  0  0  0
  9 10  2  0  0  0  0
 10 11  1  0  0  0  0
 10 12  1  0  0  0  0
 11 13  1  0  0  0  0
 11 16  1  0  0  0  0
 11 22  1  0  0  0  0
 12 15  1  0  0  0  0
 12 23  1  0  0  0  0
 12 24  1  0  0  0  0
 13 14  1  0  0  0  0
 14 15  1  0  0  0  0
 14 25  1  0  0  0  0
 14 26  1  0  0  0  0
M  END
> <PUBCHEM_COMPOUND_CID>
129721918

> <PUBCHEM_COMPOUND_CANONICALIZED>
1

> <PUBCHEM_CACTVS_COMPLEXITY>
403

> <PUBCHEM_CACTVS_HBOND_ACCEPTOR>
5

> <PUBCHEM_CACTVS_HBOND_DONOR>
2

> <PUBCHEM_CACTVS_ROTATABLE_BOND>
2

> <PUBCHEM_CACTVS_SUBSKEYS>
AAADccBwOAAAAAAAAAAAAAAAGAAAAAAAAAAwAAAAAAAAAAAAAAAAGgAACAAADQSAgAAACAAAAgCIAoDQCAAAAAAgIAAACAEAAAgAABYIAAAAQAAE4AAIAAOIziCuAAAAAAAAAAAAAAAAAAAAAAAAAAAAAA==

> <PUBCHEM_IUPAC_OPENEYE_NAME>
(2Z)-2-[cyclopropyl(hydroxy)methylene]-4,6-dioxo-cyclohexanecarboxylic acid

> <PUBCHEM_IUPAC_CAS_NAME>
(2Z)-2-[cyclopropyl(hydroxy)methylidene]-4,6-dioxo-1-cyclohexanecarboxylic acid

> <PUBCHEM_IUPAC_NAME_MARKUP>
(2<I>Z</I>)-2-[cyclopropyl(hydroxy)methylidene]-4,6-dioxocyclohexane-1-carboxylic acid

> <PUBCHEM_IUPAC_NAME>
(2Z)-2-[cyclopropyl(hydroxy)methylidene]-4,6-dioxocyclohexane-1-carboxylic acid

> <PUBCHEM_IUPAC_SYSTEMATIC_NAME>
(2Z)-2-[cyclopropyl(oxidanyl)methylidene]-4,6-bis(oxidanylidene)cyclohexane-1-carboxylic acid

> <PUBCHEM_IUPAC_TRADITIONAL_NAME>
(2Z)-2-[cyclopropyl(hydroxy)methylene]-4,6-diketo-cyclohexanecarboxylic acid

> <PUBCHEM_IUPAC_INCHI>
InChI=1S/C11H12O5/c12-6-3-7(10(14)5-1-2-5)9(11(15)16)8(13)4-6/h5,9,14H,1-4H2,(H,15,16)/b10-7-

> <PUBCHEM_IUPAC_INCHIKEY>
BQKSQCLGIHKNNW-YFHOEESVSA-N

> <PUBCHEM_XLOGP3_AA>
0.2

> <PUBCHEM_EXACT_MASS>
224.06847348

> <PUBCHEM_MOLECULAR_FORMULA>
C11H12O5

> <PUBCHEM_MOLECULAR_WEIGHT>
224.21

> <PUBCHEM_OPENEYE_CAN_SMILES>
C1CC1C(=C2CC(=O)CC(=O)C2C(=O)O)O

> <PUBCHEM_OPENEYE_ISO_SMILES>
C1CC1/C(=C/2\CC(=O)CC(=O)C2C(=O)O)/O

> <PUBCHEM_CACTVS_TPSA>
91.7

> <PUBCHEM_MONOISOTOPIC_WEIGHT>
224.06847348

> <PUBCHEM_TOTAL_CHARGE>
0

> <PUBCHEM_HEAVY_ATOM_COUNT>
16

> <PUBCHEM_ATOM_DEF_STEREO_COUNT>
0

> <PUBCHEM_ATOM_UDEF_STEREO_COUNT>
1

> <PUBCHEM_BOND_DEF_STEREO_COUNT>
1

> <PUBCHEM_BOND_UDEF_STEREO_COUNT>
0

> <PUBCHEM_ISOTOPIC_ATOM_COUNT>
0

> <PUBCHEM_COMPONENT_COUNT>
1

> <PUBCHEM_CACTVS_TAUTO_COUNT>
-1

> <PUBCHEM_COORDINATE_TYPE>
1
5
255

> <PUBCHEM_BONDANNOTATIONS>
11  16  3

$$$$
