 
  -OEChem-10192104042D

 90 94  0     1  0  0  0  0  0999 V2000
    8.0622    0.7378    0.0000 O   0  0  0  0  0  0  0  0  0  0  0  0
    7.0622    1.7378    0.0000 O   0  0  0  0  0  0  0  0  0  0  0  0
    6.3301    0.7378    0.0000 O   0  0  0  0  0  0  0  0  0  0  0  0
    8.0622   -1.2622    0.0000 O   0  0  0  0  0  0  0  0  0  0  0  0
    9.3222    2.9979    0.0000 O   0  0  0  0  0  0  0  0  0  0  0  0
    7.1962   -2.7622    0.0000 O   0  0  0  0  0  0  0  0  0  0  0  0
    7.5622    4.2766    0.0000 O   0  0  0  0  0  0  0  0  0  0  0  0
    6.3301   -2.2622    0.0000 O   0  0  0  0  0  0  0  0  0  0  0  0
    4.5981   -1.2622    0.0000 O   0  0  0  0  0  0  0  0  0  0  0  0
    9.7564    2.0979    0.0000 O   0  0  0  0  0  0  0  0  0  0  0  0
    9.7942   -2.2622    0.0000 O   0  0  0  0  0  0  0  0  0  0  0  0
    9.7942   -4.2622    0.0000 O   0  0  0  0  0  0  0  0  0  0  0  0
    8.0622   -5.2622    0.0000 O   0  0  0  0  0  0  0  0  0  0  0  0
    5.5942    3.9760    0.0000 O   0  0  0  0  0  0  0  0  0  0  0  0
    3.7320    0.2378    0.0000 O   0  0  0  0  0  0  0  0  0  0  0  0
    5.4641   -3.7622    0.0000 O   0  0  0  0  0  0  0  0  0  0  0  0
    8.7870    4.6452    0.0000 O   0  0  0  0  0  0  0  0  0  0  0  0
    4.5981   -5.2622    0.0000 O   0  0  0  0  0  0  0  0  0  0  0  0
    8.0622    1.7378    0.0000 C   0  0  2  0  0  0  0  0  0  0  0  0
    8.3712    2.6889    0.0000 C   0  0  2  0  0  0  0  0  0  0  0  0
    7.1962   -0.7622    0.0000 C   0  0  1  0  0  0  0  0  0  0  0  0
    7.1962    0.2378    0.0000 C   0  0  2  0  0  0  0  0  0  0  0  0
    7.5622    3.2766    0.0000 C   0  0  1  0  0  0  0  0  0  0  0  0
    6.3301   -1.2622    0.0000 C   0  0  2  0  0  0  0  0  0  0  0  0
    6.7532    2.6889    0.0000 C   0  0  1  0  0  0  0  0  0  0  0  0
    5.4641   -0.7622    0.0000 C   0  0  1  0  0  0  0  0  0  0  0  0
    5.4641    0.2378    0.0000 C   0  0  1  0  0  0  0  0  0  0  0  0
    8.0622   -2.2622    0.0000 C   0  0  2  0  0  0  0  0  0  0  0  0
    9.0132    1.4288    0.0000 C   0  0  0  0  0  0  0  0  0  0  0  0
    8.9282   -2.7622    0.0000 C   0  0  1  0  0  0  0  0  0  0  0  0
    8.9282   -3.7622    0.0000 C   0  0  2  0  0  0  0  0  0  0  0  0
    8.0622   -4.2622    0.0000 C   0  0  1  0  0  0  0  0  0  0  0  0
    7.1962   -3.7622    0.0000 C   0  0  1  0  0  0  0  0  0  0  0  0
    5.8021    2.9979    0.0000 C   0  0  0  0  0  0  0  0  0  0  0  0
    4.5981    0.7378    0.0000 C   0  0  0  0  0  0  0  0  0  0  0  0
    6.3301   -4.2622    0.0000 C   0  0  0  0  0  0  0  0  0  0  0  0
    9.5302    3.9760    0.0000 C   0  0  0  0  0  0  0  0  0  0  0  0
   10.4812    4.2850    0.0000 C   0  0  0  0  0  0  0  0  0  0  0  0
    4.5981   -4.2622    0.0000 C   0  0  0  0  0  0  0  0  0  0  0  0
   10.6891    5.2632    0.0000 C   0  0  0  0  0  0  0  0  0  0  0  0
   11.2244    3.6159    0.0000 C   0  0  0  0  0  0  0  0  0  0  0  0
   11.6402    5.5722    0.0000 C   0  0  0  0  0  0  0  0  0  0  0  0
   12.1754    3.9249    0.0000 C   0  0  0  0  0  0  0  0  0  0  0  0
    3.7320   -3.7622    0.0000 C   0  0  0  0  0  0  0  0  0  0  0  0
   12.3833    4.9031    0.0000 C   0  0  0  0  0  0  0  0  0  0  0  0
    3.7320   -2.7622    0.0000 C   0  0  0  0  0  0  0  0  0  0  0  0
    2.8660   -4.2622    0.0000 C   0  0  0  0  0  0  0  0  0  0  0  0
    2.8660   -2.2622    0.0000 C   0  0  0  0  0  0  0  0  0  0  0  0
    2.0000   -3.7622    0.0000 C   0  0  0  0  0  0  0  0  0  0  0  0
    2.0000   -2.7622    0.0000 C   0  0  0  0  0  0  0  0  0  0  0  0
    8.4682    3.3012    0.0000 H   0  0  0  0  0  0  0  0  0  0  0  0
    7.1962   -1.3822    0.0000 H   0  0  0  0  0  0  0  0  0  0  0  0
    7.7331   -0.0722    0.0000 H   0  0  0  0  0  0  0  0  0  0  0  0
    7.0098    3.5581    0.0000 H   0  0  0  0  0  0  0  0  0  0  0  0
    5.7932   -1.5722    0.0000 H   0  0  0  0  0  0  0  0  0  0  0  0
    6.3148    2.2504    0.0000 H   0  0  0  0  0  0  0  0  0  0  0  0
    4.9272   -0.4522    0.0000 H   0  0  0  0  0  0  0  0  0  0  0  0
    5.4641    0.8578    0.0000 H   0  0  0  0  0  0  0  0  0  0  0  0
    7.5252   -1.9522    0.0000 H   0  0  0  0  0  0  0  0  0  0  0  0
    8.7222    0.8814    0.0000 H   0  0  0  0  0  0  0  0  0  0  0  0
    9.5018    1.0471    0.0000 H   0  0  0  0  0  0  0  0  0  0  0  0
    9.4651   -3.0722    0.0000 H   0  0  0  0  0  0  0  0  0  0  0  0
    8.9282   -4.3822    0.0000 H   0  0  0  0  0  0  0  0  0  0  0  0
    7.5252   -4.5722    0.0000 H   0  0  0  0  0  0  0  0  0  0  0  0
    6.6592   -3.4522    0.0000 H   0  0  0  0  0  0  0  0  0  0  0  0
    5.1825    2.9762    0.0000 H   0  0  0  0  0  0  0  0  0  0  0  0
    5.7158    2.3839    0.0000 H   0  0  0  0  0  0  0  0  0  0  0  0
    4.9966    1.2128    0.0000 H   0  0  0  0  0  0  0  0  0  0  0  0
    4.1996    1.2128    0.0000 H   0  0  0  0  0  0  0  0  0  0  0  0
    7.0252    4.5866    0.0000 H   0  0  0  0  0  0  0  0  0  0  0  0
    5.7932   -2.5722    0.0000 H   0  0  0  0  0  0  0  0  0  0  0  0
    4.5981   -1.8822    0.0000 H   0  0  0  0  0  0  0  0  0  0  0  0
    5.9316   -4.7372    0.0000 H   0  0  0  0  0  0  0  0  0  0  0  0
    6.7287   -4.7372    0.0000 H   0  0  0  0  0  0  0  0  0  0  0  0
   10.3460    1.9063    0.0000 H   0  0  0  0  0  0  0  0  0  0  0  0
   10.3312   -2.5722    0.0000 H   0  0  0  0  0  0  0  0  0  0  0  0
    9.7942   -4.8822    0.0000 H   0  0  0  0  0  0  0  0  0  0  0  0
    7.5252   -5.5722    0.0000 H   0  0  0  0  0  0  0  0  0  0  0  0
    5.0045    4.1676    0.0000 H   0  0  0  0  0  0  0  0  0  0  0  0
    3.1951    0.5478    0.0000 H   0  0  0  0  0  0  0  0  0  0  0  0
   10.2284    5.6780    0.0000 H   0  0  0  0  0  0  0  0  0  0  0  0
   11.0955    3.0094    0.0000 H   0  0  0  0  0  0  0  0  0  0  0  0
   11.7691    6.1786    0.0000 H   0  0  0  0  0  0  0  0  0  0  0  0
   12.6362    3.5101    0.0000 H   0  0  0  0  0  0  0  0  0  0  0  0
   12.9730    5.0947    0.0000 H   0  0  0  0  0  0  0  0  0  0  0  0
    4.2690   -2.4522    0.0000 H   0  0  0  0  0  0  0  0  0  0  0  0
    2.8660   -4.8822    0.0000 H   0  0  0  0  0  0  0  0  0  0  0  0
    2.8660   -1.6422    0.0000 H   0  0  0  0  0  0  0  0  0  0  0  0
    1.4631   -4.0722    0.0000 H   0  0  0  0  0  0  0  0  0  0  0  0
    1.4631   -2.4522    0.0000 H   0  0  0  0  0  0  0  0  0  0  0  0
 19  1  1  6  0  0  0
 22  1  1  1  0  0  0
  2 19  1  0  0  0  0
  2 25  1  0  0  0  0
  3 22  1  0  0  0  0
  3 27  1  0  0  0  0
 21  4  1  6  0  0  0
 28  4  1  1  0  0  0
 20  5  1  6  0  0  0
  5 37  1  0  0  0  0
  6 28  1  0  0  0  0
  6 33  1  0  0  0  0
 23  7  1  1  0  0  0
  7 70  1  0  0  0  0
 24  8  1  1  0  0  0
  8 71  1  0  0  0  0
 26  9  1  6  0  0  0
  9 72  1  0  0  0  0
 10 29  1  0  0  0  0
 10 75  1  0  0  0  0
 30 11  1  6  0  0  0
 11 76  1  0  0  0  0
 31 12  1  1  0  0  0
 12 77  1  0  0  0  0
 32 13  1  6  0  0  0
 13 78  1  0  0  0  0
 14 34  1  0  0  0  0
 14 79  1  0  0  0  0
 15 35  1  0  0  0  0
 15 80  1  0  0  0  0
 16 36  1  0  0  0  0
 16 39  1  0  0  0  0
 17 37  2  0  0  0  0
 18 39  2  0  0  0  0
 19 20  1  0  0  0  0
 19 29  1  0  0  0  0
 20 23  1  0  0  0  0
 20 51  1  0  0  0  0
 21 22  1  0  0  0  0
 21 24  1  0  0  0  0
 21 52  1  0  0  0  0
 22 53  1  0  0  0  0
 23 25  1  0  0  0  0
 23 54  1  0  0  0  0
 24 26  1  0  0  0  0
 24 55  1  0  0  0  0
 25 34  1  6  0  0  0
 25 56  1  0  0  0  0
 26 27  1  0  0  0  0
 26 57  1  0  0  0  0
 27 35  1  1  0  0  0
 27 58  1  0  0  0  0
 28 30  1  0  0  0  0
 28 59  1  0  0  0  0
 29 60  1  0  0  0  0
 29 61  1  0  0  0  0
 30 31  1  0  0  0  0
 30 62  1  0  0  0  0
 31 32  1  0  0  0  0
 31 63  1  0  0  0  0
 32 33  1  0  0  0  0
 32 64  1  0  0  0  0
 33 36  1  1  0  0  0
 33 65  1  0  0  0  0
 34 66  1  0  0  0  0
 34 67  1  0  0  0  0
 35 68  1  0  0  0  0
 35 69  1  0  0  0  0
 36 73  1  0  0  0  0
 36 74  1  0  0  0  0
 37 38  1  0  0  0  0
 38 40  2  0  0  0  0
 38 41  1  0  0  0  0
 39 44  1  0  0  0  0
 40 42  1  0  0  0  0
 40 81  1  0  0  0  0
 41 43  2  0  0  0  0
 41 82  1  0  0  0  0
 42 45  2  0  0  0  0
 42 83  1  0  0  0  0
 43 45  1  0  0  0  0
 43 84  1  0  0  0  0
 44 46  2  0  0  0  0
 44 47  1  0  0  0  0
 45 85  1  0  0  0  0
 46 48  1  0  0  0  0
 46 86  1  0  0  0  0
 47 49  2  0  0  0  0
 47 87  1  0  0  0  0
 48 50  2  0  0  0  0
 48 88  1  0  0  0  0
 49 50  1  0  0  0  0
 49 89  1  0  0  0  0
 50 90  1  0  0  0  0
M  END
> <PUBCHEM_COMPOUND_CID>
11968976

> <PUBCHEM_COMPOUND_CANONICALIZED>
1

> <PUBCHEM_CACTVS_COMPLEXITY>
1100

> <PUBCHEM_CACTVS_HBOND_ACCEPTOR>
18

> <PUBCHEM_CACTVS_HBOND_DONOR>
9

> <PUBCHEM_CACTVS_ROTATABLE_BOND>
14

> <PUBCHEM_CACTVS_SUBSKEYS>
AAADcfB8PgAAAAAAAAAAAAAAAAAAASAAAAA0aIEAAAAAAAABQAAAGgAACAAADBSwmAMwCIAABgCIAiDSCAACAAAkAAAIiAEACMgZNjKANRiicQAlwAEPqYfI6CyOAAAAAAAAAAAAAAAAAAAAAAAAAAAAAA==

> <PUBCHEM_IUPAC_OPENEYE_NAME>
[(2R,3S,4S,5R,6S)-6-[(2S,3R,4S,5S,6R)-2-[(2S,3S,4R,5R)-3-benzoyloxy-4-hydroxy-2,5-bis(hydroxymethyl)tetrahydrofuran-2-yl]oxy-4,5-dihydroxy-6-(hydroxymethyl)tetrahydropyran-3-yl]oxy-3,4,5-trihydroxy-tetrahydropyran-2-yl]methyl benzoate

> <PUBCHEM_IUPAC_CAS_NAME>
benzoic acid [(2R,3S,4S,5R,6S)-6-[[(2S,3R,4S,5S,6R)-2-[[(2S,3S,4R,5R)-3-benzoyloxy-4-hydroxy-2,5-bis(hydroxymethyl)-2-oxolanyl]oxy]-4,5-dihydroxy-6-(hydroxymethyl)-3-oxanyl]oxy]-3,4,5-trihydroxy-2-oxanyl]methyl ester

> <PUBCHEM_IUPAC_NAME_MARKUP>
[(2<I>R</I>,3<I>S</I>,4<I>S</I>,5<I>R</I>,6<I>S</I>)-6-[(2<I>S</I>,3<I>R</I>,4<I>S</I>,5<I>S</I>,6<I>R</I>)-2-[(2<I>S</I>,3<I>S</I>,4<I>R</I>,5<I>R</I>)-3-benzoyloxy-4-hydroxy-2,5-bis(hydroxymethyl)oxolan-2-yl]oxy-4,5-dihydroxy-6-(hydroxymethyl)oxan-3-yl]oxy-3,4,5-trihydroxyoxan-2-yl]methyl benzoate

> <PUBCHEM_IUPAC_NAME>
[(2R,3S,4S,5R,6S)-6-[(2S,3R,4S,5S,6R)-2-[(2S,3S,4R,5R)-3-benzoyloxy-4-hydroxy-2,5-bis(hydroxymethyl)oxolan-2-yl]oxy-4,5-dihydroxy-6-(hydroxymethyl)oxan-3-yl]oxy-3,4,5-trihydroxyoxan-2-yl]methyl benzoate

> <PUBCHEM_IUPAC_SYSTEMATIC_NAME>
[(2R,3S,4S,5R,6S)-6-[(2S,3R,4S,5S,6R)-2-[(2S,3S,4R,5R)-2,5-bis(hydroxymethyl)-4-oxidanyl-3-(phenylcarbonyloxy)oxolan-2-yl]oxy-6-(hydroxymethyl)-4,5-bis(oxidanyl)oxan-3-yl]oxy-3,4,5-tris(oxidanyl)oxan-2-yl]methyl benzoate

> <PUBCHEM_IUPAC_TRADITIONAL_NAME>
benzoic acid [(2R,3S,4S,5R,6S)-6-[(2S,3R,4S,5S,6R)-2-[(2S,3S,4R,5R)-3-benzoyloxy-4-hydroxy-2,5-dimethylol-tetrahydrofuran-2-yl]oxy-4,5-dihydroxy-6-methylol-tetrahydropyran-3-yl]oxy-3,4,5-trihydroxy-tetrahydropyran-2-yl]methyl ester

> <PUBCHEM_IUPAC_INCHI>
InChI=1S/C32H40O18/c33-11-17-20(36)24(40)26(47-30-25(41)23(39)21(37)19(46-30)13-44-28(42)15-7-3-1-4-8-15)31(45-17)50-32(14-35)27(22(38)18(12-34)49-32)48-29(43)16-9-5-2-6-10-16/h1-10,17-27,30-31,33-41H,11-14H2/t17-,18-,19-,20-,21-,22-,23+,24+,25-,26-,27+,30+,31+,32+/m1/s1

> <PUBCHEM_IUPAC_INCHIKEY>
RTVKBFBBGVEAGA-VZMTYPHFSA-N

> <PUBCHEM_XLOGP3_AA>
-2.1

> <PUBCHEM_EXACT_MASS>
712.22146442

> <PUBCHEM_MOLECULAR_FORMULA>
C32H40O18

> <PUBCHEM_MOLECULAR_WEIGHT>
712.6

> <PUBCHEM_OPENEYE_CAN_SMILES>
C1=CC=C(C=C1)C(=O)OCC2C(C(C(C(O2)OC3C(C(C(OC3OC4(C(C(C(O4)CO)O)OC(=O)C5=CC=CC=C5)CO)CO)O)O)O)O)O

> <PUBCHEM_OPENEYE_ISO_SMILES>
C1=CC=C(C=C1)C(=O)OC[C@@H]2[C@H]([C@@H]([C@H]([C@@H](O2)O[C@@H]3[C@H]([C@@H]([C@H](O[C@H]3O[C@]4([C@H]([C@@H]([C@H](O4)CO)O)OC(=O)C5=CC=CC=C5)CO)CO)O)O)O)O)O

> <PUBCHEM_CACTVS_TPSA>
281

> <PUBCHEM_MONOISOTOPIC_WEIGHT>
712.22146442

> <PUBCHEM_TOTAL_CHARGE>
0

> <PUBCHEM_HEAVY_ATOM_COUNT>
50

> <PUBCHEM_ATOM_DEF_STEREO_COUNT>
14

> <PUBCHEM_ATOM_UDEF_STEREO_COUNT>
0

> <PUBCHEM_BOND_DEF_STEREO_COUNT>
0

> <PUBCHEM_BOND_UDEF_STEREO_COUNT>
0

> <PUBCHEM_ISOTOPIC_ATOM_COUNT>
0

> <PUBCHEM_COMPONENT_COUNT>
1

> <PUBCHEM_CACTVS_TAUTO_COUNT>
-1

> <PUBCHEM_COORDINATE_TYPE>
1
5
255

> <PUBCHEM_BONDANNOTATIONS>
19  1  6
22  1  5
30  11  6
31  12  5
32  13  6
25  34  6
27  35  5
33  36  5
38  40  8
38  41  8
21  4  6
28  4  5
40  42  8
41  43  8
42  45  8
43  45  8
44  46  8
44  47  8
46  48  8
47  49  8
48  50  8
49  50  8
20  5  6
23  7  5
24  8  5
26  9  6

$$$$
