 
  -OEChem-10192104402D

 30 30  0     1  0  0  0  0  0999 V2000
    7.6485   -2.3649    0.0000 S   0  0  0  0  0  0  0  0  0  0  0  0
    6.6485   -2.3649    0.0000 O   0  0  0  0  0  0  0  0  0  0  0  0
    7.9575   -1.4139    0.0000 O   0  0  0  0  0  0  0  0  0  0  0  0
    4.6453   -1.7740    0.0000 O   0  0  0  0  0  0  0  0  0  0  0  0
    8.0145    0.6739    0.0000 O   0  0  0  0  0  0  0  0  0  0  0  0
    5.1805   -0.1267    0.0000 O   0  0  0  0  0  0  0  0  0  0  0  0
    6.2824    0.6739    0.0000 O   0  0  0  0  0  0  0  0  0  0  0  0
    8.2363   -3.1739    0.0000 O   0  0  0  0  0  0  0  0  0  0  0  0
    6.3395   -1.4139    0.0000 C   0  0  2  0  0  0  0  0  0  0  0  0
    7.1485   -0.8261    0.0000 C   0  0  2  0  0  0  0  0  0  0  0  0
    5.3884   -1.1048    0.0000 C   0  0  0  0  0  0  0  0  0  0  0  0
    7.1485    0.1739    0.0000 C   0  0  0  0  0  0  0  0  0  0  0  0
    3.6942   -1.4650    0.0000 C   0  0  0  0  0  0  0  0  0  0  0  0
    8.0145    1.6739    0.0000 C   0  0  0  0  0  0  0  0  0  0  0  0
    2.9511   -2.1341    0.0000 C   0  0  0  0  0  0  0  0  0  0  0  0
    8.8805    2.1739    0.0000 C   0  0  0  0  0  0  0  0  0  0  0  0
    2.0000   -1.8251    0.0000 C   0  0  0  0  0  0  0  0  0  0  0  0
    8.8805    3.1739    0.0000 C   0  0  0  0  0  0  0  0  0  0  0  0
    5.9010   -1.8523    0.0000 H   0  0  0  0  0  0  0  0  0  0  0  0
    7.7009   -0.5446    0.0000 H   0  0  0  0  0  0  0  0  0  0  0  0
    3.9853   -0.9175    0.0000 H   0  0  0  0  0  0  0  0  0  0  0  0
    3.2056   -1.0832    0.0000 H   0  0  0  0  0  0  0  0  0  0  0  0
    7.8024    2.2565    0.0000 H   0  0  0  0  0  0  0  0  0  0  0  0
    7.4039    1.5663    0.0000 H   0  0  0  0  0  0  0  0  0  0  0  0
    3.0800   -2.7405    0.0000 H   0  0  0  0  0  0  0  0  0  0  0  0
    9.4175    1.8639    0.0000 H   0  0  0  0  0  0  0  0  0  0  0  0
    1.8711   -1.2186    0.0000 H   0  0  0  0  0  0  0  0  0  0  0  0
    1.5392   -2.2399    0.0000 H   0  0  0  0  0  0  0  0  0  0  0  0
    9.4175    3.4839    0.0000 H   0  0  0  0  0  0  0  0  0  0  0  0
    8.3436    3.4839    0.0000 H   0  0  0  0  0  0  0  0  0  0  0  0
  1  2  1  0  0  0  0
  1  3  1  0  0  0  0
  1  8  2  0  0  0  0
  2  9  1  0  0  0  0
  3 10  1  0  0  0  0
  4 11  1  0  0  0  0
  4 13  1  0  0  0  0
  5 12  1  0  0  0  0
  5 14  1  0  0  0  0
  6 11  2  0  0  0  0
  7 12  2  0  0  0  0
  9 10  1  0  0  0  0
  9 11  1  1  0  0  0
  9 19  1  0  0  0  0
 10 12  1  6  0  0  0
 10 20  1  0  0  0  0
 13 15  1  0  0  0  0
 13 21  1  0  0  0  0
 13 22  1  0  0  0  0
 14 16  1  0  0  0  0
 14 23  1  0  0  0  0
 14 24  1  0  0  0  0
 15 17  2  0  0  0  0
 15 25  1  0  0  0  0
 16 18  2  0  0  0  0
 16 26  1  0  0  0  0
 17 27  1  0  0  0  0
 17 28  1  0  0  0  0
 18 29  1  0  0  0  0
 18 30  1  0  0  0  0
M  END
> <PUBCHEM_COMPOUND_CID>
21578214

> <PUBCHEM_COMPOUND_CANONICALIZED>
1

> <PUBCHEM_CACTVS_COMPLEXITY>
344

> <PUBCHEM_CACTVS_HBOND_ACCEPTOR>
8

> <PUBCHEM_CACTVS_HBOND_DONOR>
0

> <PUBCHEM_CACTVS_ROTATABLE_BOND>
8

> <PUBCHEM_CACTVS_SUBSKEYS>
AAADccBwOABAAAAAAAAAAAAAAAAAASAAAAAAAAAAAAAAAAAAAAAAGgAAAAAACBSggAIACAAABACIACDSCCIAAAAAAAAIAAFAAAABBBQAIQACAAAFIAACIABDAAAAAAAAAAAAAAAAAAAAAAAAAAAAAAAAAA==

> <PUBCHEM_IUPAC_OPENEYE_NAME>
diallyl (4R,5R)-2-oxo-1,3,2-dioxathiolane-4,5-dicarboxylate

> <PUBCHEM_IUPAC_CAS_NAME>
(4R,5R)-2-oxo-1,3,2-dioxathiolane-4,5-dicarboxylic acid bis(prop-2-enyl) ester

> <PUBCHEM_IUPAC_NAME_MARKUP>
bis(prop-2-enyl) (4<I>R</I>,5<I>R</I>)-2-oxo-1,3,2-dioxathiolane-4,5-dicarboxylate

> <PUBCHEM_IUPAC_NAME>
bis(prop-2-enyl) (4R,5R)-2-oxo-1,3,2-dioxathiolane-4,5-dicarboxylate

> <PUBCHEM_IUPAC_SYSTEMATIC_NAME>
bis(prop-2-enyl) (4R,5R)-2-oxidanylidene-1,3,2-dioxathiolane-4,5-dicarboxylate

> <PUBCHEM_IUPAC_TRADITIONAL_NAME>
(4R,5R)-2-keto-1,3,2-dioxathiolane-4,5-dicarboxylic acid diallyl ester

> <PUBCHEM_IUPAC_INCHI>
InChI=1S/C10H12O7S/c1-3-5-14-9(11)7-8(17-18(13)16-7)10(12)15-6-4-2/h3-4,7-8H,1-2,5-6H2/t7-,8-/m1/s1

> <PUBCHEM_IUPAC_INCHIKEY>
XEBZFNDTUJFJDW-HTQZYQBOSA-N

> <PUBCHEM_XLOGP3_AA>
1.2

> <PUBCHEM_EXACT_MASS>
276.03037389

> <PUBCHEM_MOLECULAR_FORMULA>
C10H12O7S

> <PUBCHEM_MOLECULAR_WEIGHT>
276.26

> <PUBCHEM_OPENEYE_CAN_SMILES>
C=CCOC(=O)C1C(OS(=O)O1)C(=O)OCC=C

> <PUBCHEM_OPENEYE_ISO_SMILES>
C=CCOC(=O)[C@H]1[C@@H](OS(=O)O1)C(=O)OCC=C

> <PUBCHEM_CACTVS_TPSA>
107

> <PUBCHEM_MONOISOTOPIC_WEIGHT>
276.03037389

> <PUBCHEM_TOTAL_CHARGE>
0

> <PUBCHEM_HEAVY_ATOM_COUNT>
18

> <PUBCHEM_ATOM_DEF_STEREO_COUNT>
2

> <PUBCHEM_ATOM_UDEF_STEREO_COUNT>
0

> <PUBCHEM_BOND_DEF_STEREO_COUNT>
0

> <PUBCHEM_BOND_UDEF_STEREO_COUNT>
0

> <PUBCHEM_ISOTOPIC_ATOM_COUNT>
0

> <PUBCHEM_COMPONENT_COUNT>
1

> <PUBCHEM_CACTVS_TAUTO_COUNT>
-1

> <PUBCHEM_COORDINATE_TYPE>
1
5
255

> <PUBCHEM_BONDANNOTATIONS>
10  12  6
9  11  5

$$$$
