 
  -OEChem-10192103332D

 21 21  0     1  0  0  0  0  0999 V2000
    4.3060   -0.7192    0.0000 O   0  0  0  0  0  0  0  0  0  0  0  0
    2.5989    0.9879    0.0000 O   0  0  0  0  0  0  0  0  0  0  0  0
    4.7543    1.9538    0.0000 O   0  0  0  0  0  0  0  0  0  0  0  0
    6.6861    1.4362    0.0000 O   0  0  0  0  0  0  0  0  0  0  0  0
    2.8577   -2.3922    0.0000 O   0  0  0  0  0  0  0  0  0  0  0  0
    4.3060    0.2808    0.0000 C   0  0  1  0  0  0  0  0  0  0  0  0
    3.3060    0.2808    0.0000 C   0  0  1  0  0  0  0  0  0  0  0  0
    3.3060   -0.7192    0.0000 C   0  0  1  0  0  0  0  0  0  0  0  0
    5.0131    0.9879    0.0000 C   0  0  1  0  0  0  0  0  0  0  0  0
    5.9790    0.7291    0.0000 C   0  0  0  0  0  0  0  0  0  0  0  0
    2.5989   -1.4263    0.0000 C   0  0  0  0  0  0  0  0  0  0  0  0
    5.0913   -0.0445    0.0000 H   0  0  0  0  0  0  0  0  0  0  0  0
    2.7332    0.0435    0.0000 H   0  0  0  0  0  0  0  0  0  0  0  0
    3.5432   -1.2920    0.0000 H   0  0  0  0  0  0  0  0  0  0  0  0
    5.4515    1.4263    0.0000 H   0  0  0  0  0  0  0  0  0  0  0  0
    5.7170    0.1672    0.0000 H   0  0  0  0  0  0  0  0  0  0  0  0
    6.4869    0.3735    0.0000 H   0  0  0  0  0  0  0  0  0  0  0  0
    2.0000   -1.2658    0.0000 H   0  0  0  0  0  0  0  0  0  0  0  0
    2.0000    0.8274    0.0000 H   0  0  0  0  0  0  0  0  0  0  0  0
    5.1927    2.3922    0.0000 H   0  0  0  0  0  0  0  0  0  0  0  0
    7.2850    1.2757    0.0000 H   0  0  0  0  0  0  0  0  0  0  0  0
  1  6  1  0  0  0  0
  1  8  1  0  0  0  0
  7  2  1  1  0  0  0
  2 19  1  0  0  0  0
  9  3  1  6  0  0  0
  3 20  1  0  0  0  0
  4 10  1  0  0  0  0
  4 21  1  0  0  0  0
  5 11  2  0  0  0  0
  6  7  1  0  0  0  0
  6  9  1  0  0  0  0
  6 12  1  6  0  0  0
  7  8  1  0  0  0  0
  7 13  1  0  0  0  0
  8 11  1  6  0  0  0
  8 14  1  0  0  0  0
  9 10  1  0  0  0  0
  9 15  1  0  0  0  0
 10 16  1  0  0  0  0
 10 17  1  0  0  0  0
 11 18  1  0  0  0  0
M  END
> <PUBCHEM_COMPOUND_CID>
117696555

> <PUBCHEM_COMPOUND_CANONICALIZED>
1

> <PUBCHEM_CACTVS_COMPLEXITY>
148

> <PUBCHEM_CACTVS_HBOND_ACCEPTOR>
5

> <PUBCHEM_CACTVS_HBOND_DONOR>
3

> <PUBCHEM_CACTVS_ROTATABLE_BOND>
3

> <PUBCHEM_CACTVS_SUBSKEYS>
AAADccBgOAAAAAAAAAAAAAAAAABIAAAAAAAAAAAAAAAAAAAAAAAAGgAACAAACBSggAIAAAAABgAIAAgQgAIAAAAAAAAAAAFAAAABEBYAAAQCQAAFIAADAAHKbARAAAAAAAAAAAAAAAAAAAAAAAAAAAAAAA==

> <PUBCHEM_IUPAC_OPENEYE_NAME>
(2S,3S,4R)-4-[(1R)-1,2-dihydroxyethyl]-3-hydroxy-oxetane-2-carbaldehyde

> <PUBCHEM_IUPAC_CAS_NAME>
(2S,3S,4R)-4-[(1R)-1,2-dihydroxyethyl]-3-hydroxy-2-oxetanecarboxaldehyde

> <PUBCHEM_IUPAC_NAME_MARKUP>
(2<I>S</I>,3<I>S</I>,4<I>R</I>)-4-[(1<I>R</I>)-1,2-dihydroxyethyl]-3-hydroxyoxetane-2-carbaldehyde

> <PUBCHEM_IUPAC_NAME>
(2S,3S,4R)-4-[(1R)-1,2-dihydroxyethyl]-3-hydroxyoxetane-2-carbaldehyde

> <PUBCHEM_IUPAC_SYSTEMATIC_NAME>
(2S,3S,4R)-4-[(1R)-1,2-bis(oxidanyl)ethyl]-3-oxidanyl-oxetane-2-carbaldehyde

> <PUBCHEM_IUPAC_TRADITIONAL_NAME>
(2S,3S,4R)-4-[(1R)-1,2-dihydroxyethyl]-3-hydroxy-oxetane-2-carbaldehyde

> <PUBCHEM_IUPAC_INCHI>
InChI=1S/C6H10O5/c7-1-3(9)6-5(10)4(2-8)11-6/h2-7,9-10H,1H2/t3-,4-,5-,6-/m1/s1

> <PUBCHEM_IUPAC_INCHIKEY>
OOUFCDRLYLJQSW-KVTDHHQDSA-N

> <PUBCHEM_XLOGP3_AA>
-1.9

> <PUBCHEM_EXACT_MASS>
162.05282342

> <PUBCHEM_MOLECULAR_FORMULA>
C6H10O5

> <PUBCHEM_MOLECULAR_WEIGHT>
162.14

> <PUBCHEM_OPENEYE_CAN_SMILES>
C(C(C1C(C(O1)C=O)O)O)O

> <PUBCHEM_OPENEYE_ISO_SMILES>
C([C@H]([C@@H]1[C@@H]([C@H](O1)C=O)O)O)O

> <PUBCHEM_CACTVS_TPSA>
87

> <PUBCHEM_MONOISOTOPIC_WEIGHT>
162.05282342

> <PUBCHEM_TOTAL_CHARGE>
0

> <PUBCHEM_HEAVY_ATOM_COUNT>
11

> <PUBCHEM_ATOM_DEF_STEREO_COUNT>
4

> <PUBCHEM_ATOM_UDEF_STEREO_COUNT>
0

> <PUBCHEM_BOND_DEF_STEREO_COUNT>
0

> <PUBCHEM_BOND_UDEF_STEREO_COUNT>
0

> <PUBCHEM_ISOTOPIC_ATOM_COUNT>
0

> <PUBCHEM_COMPONENT_COUNT>
1

> <PUBCHEM_CACTVS_TAUTO_COUNT>
-1

> <PUBCHEM_COORDINATE_TYPE>
1
5
255

> <PUBCHEM_BONDANNOTATIONS>
7  2  5
9  3  6
6  12  6
8  11  6

$$$$
