 
  -OEChem-10192104332D

 50 52  0     1  0  0  0  0  0999 V2000
    8.8712   -4.2153    0.0000 O   0  0  0  0  0  0  0  0  0  0  0  0
    6.9744   -5.9754    0.0000 O   0  0  0  0  0  0  0  0  0  0  0  0
   10.1445   -5.8709    0.0000 O   0  0  0  0  0  0  0  0  0  0  0  0
    9.7942   -2.6275    0.0000 O   0  0  0  0  0  0  0  0  0  0  0  0
    7.1962    1.8725    0.0000 O   0  0  0  0  0  0  0  0  0  0  0  0
    6.3301    0.3725    0.0000 O   0  0  0  0  0  0  0  0  0  0  0  0
    2.8660    6.3725    0.0000 O   0  5  0  0  0  0  0  0  0  0  0  0
    2.0000    4.8725    0.0000 O   0  0  0  0  0  0  0  0  0  0  0  0
    8.0622   -2.6275    0.0000 N   0  0  0  0  0  0  0  0  0  0  0  0
    8.9282   -1.1275    0.0000 N   0  0  0  0  0  0  0  0  0  0  0  0
    8.0622    0.3725    0.0000 N   0  0  0  0  0  0  0  0  0  0  0  0
    2.8660    5.3725    0.0000 N   0  3  0  0  0  0  0  0  0  0  0  0
    7.5622   -5.1664    0.0000 C   0  0  1  0  0  0  0  0  0  0  0  0
    7.2532   -4.2153    0.0000 C   0  0  0  0  0  0  0  0  0  0  0  0
    8.5622   -5.1664    0.0000 C   0  0  1  0  0  0  0  0  0  0  0  0
    8.0622   -3.6275    0.0000 C   0  0  1  0  0  0  0  0  0  0  0  0
    9.1500   -5.9754    0.0000 C   0  0  0  0  0  0  0  0  0  0  0  0
    7.1962   -2.1275    0.0000 C   0  0  0  0  0  0  0  0  0  0  0  0
    8.9282   -2.1275    0.0000 C   0  0  0  0  0  0  0  0  0  0  0  0
    7.1962   -1.1275    0.0000 C   0  0  0  0  0  0  0  0  0  0  0  0
    8.0622   -0.6275    0.0000 C   0  0  0  0  0  0  0  0  0  0  0  0
    6.3301    3.3725    0.0000 C   0  0  0  0  0  0  0  0  0  0  0  0
    6.3301    2.3725    0.0000 C   0  0  0  0  0  0  0  0  0  0  0  0
    5.4641    3.8725    0.0000 C   0  0  0  0  0  0  0  0  0  0  0  0
    7.1962    0.8725    0.0000 C   0  0  0  0  0  0  0  0  0  0  0  0
    4.5981    3.3725    0.0000 C   0  0  0  0  0  0  0  0  0  0  0  0
    5.4641    4.8725    0.0000 C   0  0  0  0  0  0  0  0  0  0  0  0
    3.7320    3.8725    0.0000 C   0  0  0  0  0  0  0  0  0  0  0  0
    4.5981    5.3725    0.0000 C   0  0  0  0  0  0  0  0  0  0  0  0
    3.7320    4.8725    0.0000 C   0  0  0  0  0  0  0  0  0  0  0  0
    6.9498   -5.0694    0.0000 H   0  0  0  0  0  0  0  0  0  0  0  0
    6.9432   -3.6784    0.0000 H   0  0  0  0  0  0  0  0  0  0  0  0
    6.6868   -4.4675    0.0000 H   0  0  0  0  0  0  0  0  0  0  0  0
    9.1745   -5.0694    0.0000 H   0  0  0  0  0  0  0  0  0  0  0  0
    7.5098   -3.3461    0.0000 H   0  0  0  0  0  0  0  0  0  0  0  0
    8.5927   -6.2472    0.0000 H   0  0  0  0  0  0  0  0  0  0  0  0
    9.3209   -6.5714    0.0000 H   0  0  0  0  0  0  0  0  0  0  0  0
    6.3578   -5.9106    0.0000 H   0  0  0  0  0  0  0  0  0  0  0  0
    6.6592   -2.4375    0.0000 H   0  0  0  0  0  0  0  0  0  0  0  0
   10.5089   -6.3725    0.0000 H   0  0  0  0  0  0  0  0  0  0  0  0
    6.6592   -0.8175    0.0000 H   0  0  0  0  0  0  0  0  0  0  0  0
    8.5991    0.6825    0.0000 H   0  0  0  0  0  0  0  0  0  0  0  0
    6.9407    3.2648    0.0000 H   0  0  0  0  0  0  0  0  0  0  0  0
    6.5422    3.9551    0.0000 H   0  0  0  0  0  0  0  0  0  0  0  0
    5.7196    2.4801    0.0000 H   0  0  0  0  0  0  0  0  0  0  0  0
    6.1181    1.7898    0.0000 H   0  0  0  0  0  0  0  0  0  0  0  0
    4.5981    2.7525    0.0000 H   0  0  0  0  0  0  0  0  0  0  0  0
    6.0010    5.1825    0.0000 H   0  0  0  0  0  0  0  0  0  0  0  0
    3.1951    3.5625    0.0000 H   0  0  0  0  0  0  0  0  0  0  0  0
    4.5981    5.9925    0.0000 H   0  0  0  0  0  0  0  0  0  0  0  0
  1 15  1  0  0  0  0
  1 16  1  0  0  0  0
 13  2  1  1  0  0  0
  2 38  1  0  0  0  0
  3 17  1  0  0  0  0
  3 40  1  0  0  0  0
  4 19  2  0  0  0  0
  5 23  1  0  0  0  0
  5 25  1  0  0  0  0
  6 25  2  0  0  0  0
  7 12  1  0  0  0  0
  8 12  2  0  0  0  0
 16  9  1  6  0  0  0
  9 18  1  0  0  0  0
  9 19  1  0  0  0  0
 10 19  1  0  0  0  0
 10 21  2  0  0  0  0
 11 21  1  0  0  0  0
 11 25  1  0  0  0  0
 11 42  1  0  0  0  0
 12 30  1  0  0  0  0
 13 14  1  0  0  0  0
 13 15  1  0  0  0  0
 13 31  1  0  0  0  0
 14 16  1  0  0  0  0
 14 32  1  0  0  0  0
 14 33  1  0  0  0  0
 15 17  1  6  0  0  0
 15 34  1  0  0  0  0
 16 35  1  0  0  0  0
 17 36  1  0  0  0  0
 17 37  1  0  0  0  0
 18 20  2  0  0  0  0
 18 39  1  0  0  0  0
 20 21  1  0  0  0  0
 20 41  1  0  0  0  0
 22 23  1  0  0  0  0
 22 24  1  0  0  0  0
 22 43  1  0  0  0  0
 22 44  1  0  0  0  0
 23 45  1  0  0  0  0
 23 46  1  0  0  0  0
 24 26  2  0  0  0  0
 24 27  1  0  0  0  0
 26 28  1  0  0  0  0
 26 47  1  0  0  0  0
 27 29  2  0  0  0  0
 27 48  1  0  0  0  0
 28 30  2  0  0  0  0
 28 49  1  0  0  0  0
 29 30  1  0  0  0  0
 29 50  1  0  0  0  0
M  CHG  2   7  -1  12   1
M  END
> <PUBCHEM_COMPOUND_CID>
15382485

> <PUBCHEM_COMPOUND_CANONICALIZED>
1

> <PUBCHEM_CACTVS_COMPLEXITY>
714

> <PUBCHEM_CACTVS_HBOND_ACCEPTOR>
8

> <PUBCHEM_CACTVS_HBOND_DONOR>
3

> <PUBCHEM_CACTVS_ROTATABLE_BOND>
7

> <PUBCHEM_CACTVS_SUBSKEYS>
AAADceB7vAAAAAAAAAAAAAAAAAAAASAAAAAwQAAAAAAAAAABAAAAHgAUCAAADBzhmAYxyIPQRgCpAiZmfwCCAAEgAgApiAAYZJuJMCKAkZGOYABn1gMLyAew8KIOCAAAAAAAAAAQAAAAAAAAAAAAAAAAAA==

> <PUBCHEM_IUPAC_OPENEYE_NAME>
2-(4-nitrophenyl)ethyl N-[1-[(2R,4S,5R)-4-hydroxy-5-(hydroxymethyl)tetrahydrofuran-2-yl]-2-oxo-pyrimidin-4-yl]carbamate

> <PUBCHEM_IUPAC_CAS_NAME>
N-[1-[(2R,4S,5R)-4-hydroxy-5-(hydroxymethyl)-2-oxolanyl]-2-oxo-4-pyrimidinyl]carbamic acid 2-(4-nitrophenyl)ethyl ester

> <PUBCHEM_IUPAC_NAME_MARKUP>
2-(4-nitrophenyl)ethyl <I>N</I>-[1-[(2<I>R</I>,4<I>S</I>,5<I>R</I>)-4-hydroxy-5-(hydroxymethyl)oxolan-2-yl]-2-oxopyrimidin-4-yl]carbamate

> <PUBCHEM_IUPAC_NAME>
2-(4-nitrophenyl)ethyl N-[1-[(2R,4S,5R)-4-hydroxy-5-(hydroxymethyl)oxolan-2-yl]-2-oxopyrimidin-4-yl]carbamate

> <PUBCHEM_IUPAC_SYSTEMATIC_NAME>
2-(4-nitrophenyl)ethyl N-[1-[(2R,4S,5R)-5-(hydroxymethyl)-4-oxidanyl-oxolan-2-yl]-2-oxidanylidene-pyrimidin-4-yl]carbamate

> <PUBCHEM_IUPAC_TRADITIONAL_NAME>
N-[1-[(2R,4S,5R)-4-hydroxy-5-methylol-tetrahydrofuran-2-yl]-2-keto-pyrimidin-4-yl]carbamic acid 2-(4-nitrophenyl)ethyl ester

> <PUBCHEM_IUPAC_INCHI>
InChI=1S/C18H20N4O8/c23-10-14-13(24)9-16(30-14)21-7-5-15(19-17(21)25)20-18(26)29-8-6-11-1-3-12(4-2-11)22(27)28/h1-5,7,13-14,16,23-24H,6,8-10H2,(H,19,20,25,26)/t13-,14+,16+/m0/s1

> <PUBCHEM_IUPAC_INCHIKEY>
HEVBOJNVNMZVLQ-SQWLQELKSA-N

> <PUBCHEM_XLOGP3>
1.2

> <PUBCHEM_EXACT_MASS>
420.12811361

> <PUBCHEM_MOLECULAR_FORMULA>
C18H20N4O8

> <PUBCHEM_MOLECULAR_WEIGHT>
420.4

> <PUBCHEM_OPENEYE_CAN_SMILES>
C1C(C(OC1N2C=CC(=NC2=O)NC(=O)OCCC3=CC=C(C=C3)[N+](=O)[O-])CO)O

> <PUBCHEM_OPENEYE_ISO_SMILES>
C1[C@@H]([C@H](O[C@H]1N2C=CC(=NC2=O)NC(=O)OCCC3=CC=C(C=C3)[N+](=O)[O-])CO)O

> <PUBCHEM_CACTVS_TPSA>
167

> <PUBCHEM_MONOISOTOPIC_WEIGHT>
420.12811361

> <PUBCHEM_TOTAL_CHARGE>
0

> <PUBCHEM_HEAVY_ATOM_COUNT>
30

> <PUBCHEM_ATOM_DEF_STEREO_COUNT>
3

> <PUBCHEM_ATOM_UDEF_STEREO_COUNT>
0

> <PUBCHEM_BOND_DEF_STEREO_COUNT>
0

> <PUBCHEM_BOND_UDEF_STEREO_COUNT>
0

> <PUBCHEM_ISOTOPIC_ATOM_COUNT>
0

> <PUBCHEM_COMPONENT_COUNT>
1

> <PUBCHEM_CACTVS_TAUTO_COUNT>
-1

> <PUBCHEM_COORDINATE_TYPE>
1
5
255

> <PUBCHEM_BONDANNOTATIONS>
10  19  8
10  21  8
15  17  6
18  20  8
13  2  5
20  21  8
24  26  8
24  27  8
26  28  8
27  29  8
28  30  8
29  30  8
16  9  6
9  18  8
9  19  8

$$$$
