 
  -OEChem-10192104142D

 68 70  0     1  0  0  0  0  0999 V2000
    7.7468    4.6227    0.0000 O   0  0  0  0  0  0  0  0  0  0  0  0
    7.1962   -0.1227    0.0000 O   0  0  0  0  0  0  0  0  0  0  0  0
    5.4361    1.1561    0.0000 O   0  0  0  0  0  0  0  0  0  0  0  0
    8.9562    1.1561    0.0000 O   0  0  0  0  0  0  0  0  0  0  0  0
    5.4641   -0.1227    0.0000 O   0  0  0  0  0  0  0  0  0  0  0  0
    7.1962   -2.1227    0.0000 O   0  0  0  0  0  0  0  0  0  0  0  0
    9.5507    4.2228    0.0000 O   0  0  0  0  0  0  0  0  0  0  0  0
    5.4641   -3.1227    0.0000 O   0  0  0  0  0  0  0  0  0  0  0  0
    3.7320   -2.1227    0.0000 O   0  0  0  0  0  0  0  0  0  0  0  0
    3.7320    0.8773    0.0000 O   0  0  0  0  0  0  0  0  0  0  0  0
    3.7419    1.5162    0.0000 O   0  0  0  0  0  0  0  0  0  0  0  0
    6.3301   -3.6227    0.0000 O   0  0  0  0  0  0  0  0  0  0  0  0
    3.7320   -3.1227    0.0000 O   0  0  0  0  0  0  0  0  0  0  0  0
    2.8660   -0.6227    0.0000 O   0  0  0  0  0  0  0  0  0  0  0  0
    2.0000    0.8773    0.0000 O   0  0  0  0  0  0  0  0  0  0  0  0
    7.6093    2.9086    0.0000 C   0  0  1  0  0  0  0  0  0  0  0  0
    7.1962    0.8773    0.0000 C   0  0  1  0  0  0  0  0  0  0  0  0
    6.7902    3.4821    0.0000 C   0  0  2  0  0  0  0  0  0  0  0  0
    6.3871    1.4651    0.0000 C   0  0  1  0  0  0  0  0  0  0  0  0
    8.0052    1.4651    0.0000 C   0  0  1  0  0  0  0  0  0  0  0  0
    5.6149    3.1260    0.0000 C   0  0  0  0  0  0  0  0  0  0  0  0
    8.5659    4.0491    0.0000 C   0  0  0  0  0  0  0  0  0  0  0  0
    6.3301   -0.6227    0.0000 C   0  0  2  0  0  0  0  0  0  0  0  0
    6.3301   -1.6227    0.0000 C   0  0  1  0  0  0  0  0  0  0  0  0
    5.4641   -2.1227    0.0000 C   0  0  2  0  0  0  0  0  0  0  0  0
    4.5981   -1.6227    0.0000 C   0  0  1  0  0  0  0  0  0  0  0  0
    4.5981   -0.6227    0.0000 C   0  0  1  0  0  0  0  0  0  0  0  0
    3.7320   -0.1227    0.0000 C   0  0  0  0  0  0  0  0  0  0  0  0
    4.6929    1.8252    0.0000 C   0  0  0  0  0  0  0  0  0  0  0  0
    7.1962   -3.1227    0.0000 C   0  0  0  0  0  0  0  0  0  0  0  0
    4.9008    2.8034    0.0000 C   0  0  0  0  0  0  0  0  0  0  0  0
    4.5981   -3.6227    0.0000 C   0  0  0  0  0  0  0  0  0  0  0  0
    2.8660   -1.6227    0.0000 C   0  0  0  0  0  0  0  0  0  0  0  0
    8.0622   -3.6227    0.0000 C   0  0  0  0  0  0  0  0  0  0  0  0
    4.5981   -4.6227    0.0000 C   0  0  0  0  0  0  0  0  0  0  0  0
    2.8660    1.3773    0.0000 C   0  0  0  0  0  0  0  0  0  0  0  0
    2.0000   -2.1227    0.0000 C   0  0  0  0  0  0  0  0  0  0  0  0
    2.8660    2.3773    0.0000 C   0  0  0  0  0  0  0  0  0  0  0  0
    8.3056    2.4210    0.0000 H   0  0  0  0  0  0  0  0  0  0  0  0
    7.7486    0.5958    0.0000 H   0  0  0  0  0  0  0  0  0  0  0  0
    6.0939    3.9697    0.0000 H   0  0  0  0  0  0  0  0  0  0  0  0
    6.2902    0.8527    0.0000 H   0  0  0  0  0  0  0  0  0  0  0  0
    8.1022    0.8527    0.0000 H   0  0  0  0  0  0  0  0  0  0  0  0
    5.2233    3.6067    0.0000 H   0  0  0  0  0  0  0  0  0  0  0  0
    5.3188    2.5813    0.0000 H   0  0  0  0  0  0  0  0  0  0  0  0
    6.8671   -0.9327    0.0000 H   0  0  0  0  0  0  0  0  0  0  0  0
    6.3301   -2.2427    0.0000 H   0  0  0  0  0  0  0  0  0  0  0  0
    4.9272   -2.4327    0.0000 H   0  0  0  0  0  0  0  0  0  0  0  0
    4.5981   -2.2427    0.0000 H   0  0  0  0  0  0  0  0  0  0  0  0
    4.5981   -0.0027    0.0000 H   0  0  0  0  0  0  0  0  0  0  0  0
    9.0851    0.5496    0.0000 H   0  0  0  0  0  0  0  0  0  0  0  0
    3.1215   -0.0150    0.0000 H   0  0  0  0  0  0  0  0  0  0  0  0
    3.5200   -0.7053    0.0000 H   0  0  0  0  0  0  0  0  0  0  0  0
    5.5073    2.6745    0.0000 H   0  0  0  0  0  0  0  0  0  0  0  0
    5.0298    3.4098    0.0000 H   0  0  0  0  0  0  0  0  0  0  0  0
    4.2944    2.9323    0.0000 H   0  0  0  0  0  0  0  0  0  0  0  0
    7.7522   -4.1596    0.0000 H   0  0  0  0  0  0  0  0  0  0  0  0
    8.5991   -3.9327    0.0000 H   0  0  0  0  0  0  0  0  0  0  0  0
    8.3722   -3.0858    0.0000 H   0  0  0  0  0  0  0  0  0  0  0  0
    3.9781   -4.6227    0.0000 H   0  0  0  0  0  0  0  0  0  0  0  0
    4.5981   -5.2427    0.0000 H   0  0  0  0  0  0  0  0  0  0  0  0
    5.2181   -4.6227    0.0000 H   0  0  0  0  0  0  0  0  0  0  0  0
    1.6900   -1.5858    0.0000 H   0  0  0  0  0  0  0  0  0  0  0  0
    1.4631   -2.4327    0.0000 H   0  0  0  0  0  0  0  0  0  0  0  0
    2.3100   -2.6596    0.0000 H   0  0  0  0  0  0  0  0  0  0  0  0
    3.4860    2.3773    0.0000 H   0  0  0  0  0  0  0  0  0  0  0  0
    2.8660    2.9973    0.0000 H   0  0  0  0  0  0  0  0  0  0  0  0
    2.2460    2.3773    0.0000 H   0  0  0  0  0  0  0  0  0  0  0  0
  1 18  1  0  0  0  0
  1 22  1  0  0  0  0
 17  2  1  1  0  0  0
 23  2  1  1  0  0  0
 19  3  1  6  0  0  0
  3 29  1  0  0  0  0
 20  4  1  6  0  0  0
  4 51  1  0  0  0  0
  5 23  1  0  0  0  0
  5 27  1  0  0  0  0
 24  6  1  6  0  0  0
  6 30  1  0  0  0  0
  7 22  2  0  0  0  0
 25  8  1  1  0  0  0
  8 32  1  0  0  0  0
 26  9  1  6  0  0  0
  9 33  1  0  0  0  0
 10 28  1  0  0  0  0
 10 36  1  0  0  0  0
 11 29  2  0  0  0  0
 12 30  2  0  0  0  0
 13 32  2  0  0  0  0
 14 33  2  0  0  0  0
 15 36  2  0  0  0  0
 16 20  1  0  0  0  0
 16 21  1  0  0  0  0
 16 22  1  0  0  0  0
 16 39  1  6  0  0  0
 17 19  1  0  0  0  0
 17 20  1  0  0  0  0
 17 40  1  0  0  0  0
 18 19  1  0  0  0  0
 18 21  1  0  0  0  0
 18 41  1  1  0  0  0
 19 42  1  0  0  0  0
 20 43  1  0  0  0  0
 21 44  1  0  0  0  0
 21 45  1  0  0  0  0
 23 24  1  0  0  0  0
 23 46  1  0  0  0  0
 24 25  1  0  0  0  0
 24 47  1  0  0  0  0
 25 26  1  0  0  0  0
 25 48  1  0  0  0  0
 26 27  1  0  0  0  0
 26 49  1  0  0  0  0
 27 28  1  1  0  0  0
 27 50  1  0  0  0  0
 28 52  1  0  0  0  0
 28 53  1  0  0  0  0
 29 31  1  0  0  0  0
 30 34  1  0  0  0  0
 31 54  1  0  0  0  0
 31 55  1  0  0  0  0
 31 56  1  0  0  0  0
 32 35  1  0  0  0  0
 33 37  1  0  0  0  0
 34 57  1  0  0  0  0
 34 58  1  0  0  0  0
 34 59  1  0  0  0  0
 35 60  1  0  0  0  0
 35 61  1  0  0  0  0
 35 62  1  0  0  0  0
 36 38  1  0  0  0  0
 37 63  1  0  0  0  0
 37 64  1  0  0  0  0
 37 65  1  0  0  0  0
 38 66  1  0  0  0  0
 38 67  1  0  0  0  0
 38 68  1  0  0  0  0
M  END
> <PUBCHEM_COMPOUND_CID>
11387236

> <PUBCHEM_COMPOUND_CANONICALIZED>
1

> <PUBCHEM_CACTVS_COMPLEXITY>
963

> <PUBCHEM_CACTVS_HBOND_ACCEPTOR>
15

> <PUBCHEM_CACTVS_HBOND_DONOR>
1

> <PUBCHEM_CACTVS_ROTATABLE_BOND>
13

> <PUBCHEM_CACTVS_SUBSKEYS>
AAADceB4PAAAAAAAAAAAAAAAAAAAASAAAAA0QAAABIAAAAAAAAAAGgAACAAADRSwgAMCCAAABgAIAACQCAAAAAAAAAAAAAEAAAAREBYAAAAiQAAFIAAHAAHK7DzOAAAAAAAAAABCAAIQABCAAAAAAAAAAA==

> <PUBCHEM_IUPAC_OPENEYE_NAME>
[(2R,3R,4S,5R,6S)-3,4,5-triacetoxy-6-[[(1R,2S,3R,4R,5S)-4-acetoxy-2-hydroxy-7-oxo-6-oxabicyclo[3.2.1]octan-3-yl]oxy]tetrahydropyran-2-yl]methyl acetate

> <PUBCHEM_IUPAC_CAS_NAME>
acetic acid [(2R,3R,4S,5R,6S)-3,4,5-triacetyloxy-6-[[(1R,2S,3R,4R,5S)-4-acetyloxy-2-hydroxy-7-oxo-6-oxabicyclo[3.2.1]octan-3-yl]oxy]-2-oxanyl]methyl ester

> <PUBCHEM_IUPAC_NAME_MARKUP>
[(2<I>R</I>,3<I>R</I>,4<I>S</I>,5<I>R</I>,6<I>S</I>)-3,4,5-triacetyloxy-6-[[(1<I>R</I>,2<I>S</I>,3<I>R</I>,4<I>R</I>,5<I>S</I>)-4-acetyloxy-2-hydroxy-7-oxo-6-oxabicyclo[3.2.1]octan-3-yl]oxy]oxan-2-yl]methyl acetate

> <PUBCHEM_IUPAC_NAME>
[(2R,3R,4S,5R,6S)-3,4,5-triacetyloxy-6-[[(1R,2S,3R,4R,5S)-4-acetyloxy-2-hydroxy-7-oxo-6-oxabicyclo[3.2.1]octan-3-yl]oxy]oxan-2-yl]methyl acetate

> <PUBCHEM_IUPAC_SYSTEMATIC_NAME>
[(2R,3R,4S,5R,6S)-3,4,5-triacetyloxy-6-[[(1R,2S,3R,4R,5S)-4-acetyloxy-2-oxidanyl-7-oxidanylidene-6-oxabicyclo[3.2.1]octan-3-yl]oxy]oxan-2-yl]methyl ethanoate

> <PUBCHEM_IUPAC_TRADITIONAL_NAME>
acetic acid [(2R,3R,4S,5R,6S)-3,4,5-triacetoxy-6-[[(1R,2S,3R,4R,5S)-4-acetoxy-2-hydroxy-7-keto-6-oxabicyclo[3.2.1]octan-3-yl]oxy]tetrahydropyran-2-yl]methyl ester

> <PUBCHEM_IUPAC_INCHI>
InChI=1S/C23H30O15/c1-8(24)31-7-15-18(33-10(3)26)20(34-11(4)27)21(35-12(5)28)23(37-15)38-19-16(29)13-6-14(36-22(13)30)17(19)32-9(2)25/h13-21,23,29H,6-7H2,1-5H3/t13-,14+,15-,16+,17-,18-,19-,20+,21-,23+/m1/s1

> <PUBCHEM_IUPAC_INCHIKEY>
ZKHYJPPCRBZNSU-WZWCEBQHSA-N

> <PUBCHEM_XLOGP3_AA>
-1.1

> <PUBCHEM_EXACT_MASS>
546.15847025

> <PUBCHEM_MOLECULAR_FORMULA>
C23H30O15

> <PUBCHEM_MOLECULAR_WEIGHT>
546.5

> <PUBCHEM_OPENEYE_CAN_SMILES>
CC(=O)OCC1C(C(C(C(O1)OC2C(C3CC(C2OC(=O)C)OC3=O)O)OC(=O)C)OC(=O)C)OC(=O)C

> <PUBCHEM_OPENEYE_ISO_SMILES>
CC(=O)OC[C@@H]1[C@H]([C@@H]([C@H]([C@@H](O1)O[C@@H]2[C@H]([C@H]3C[C@@H]([C@H]2OC(=O)C)OC3=O)O)OC(=O)C)OC(=O)C)OC(=O)C

> <PUBCHEM_CACTVS_TPSA>
197

> <PUBCHEM_MONOISOTOPIC_WEIGHT>
546.15847025

> <PUBCHEM_TOTAL_CHARGE>
0

> <PUBCHEM_HEAVY_ATOM_COUNT>
38

> <PUBCHEM_ATOM_DEF_STEREO_COUNT>
10

> <PUBCHEM_ATOM_UDEF_STEREO_COUNT>
0

> <PUBCHEM_BOND_DEF_STEREO_COUNT>
0

> <PUBCHEM_BOND_UDEF_STEREO_COUNT>
0

> <PUBCHEM_ISOTOPIC_ATOM_COUNT>
0

> <PUBCHEM_COMPONENT_COUNT>
1

> <PUBCHEM_CACTVS_TAUTO_COUNT>
-1

> <PUBCHEM_COORDINATE_TYPE>
1
5
255

> <PUBCHEM_BONDANNOTATIONS>
16  39  6
18  41  5
17  2  5
23  2  5
27  28  5
19  3  6
20  4  6
24  6  6
25  8  5
26  9  6

$$$$
