 
  -OEChem-10192104222D

 81 84  0     1  0  0  0  0  0999 V2000
    7.9174   -2.4940    0.0000 O   0  0  0  0  0  0  0  0  0  0  0  0
   10.1248    0.4506    0.0000 O   0  0  0  0  0  0  0  0  0  0  0  0
    2.5405   -1.4548    0.0000 O   0  0  0  0  0  0  0  0  0  0  0  0
    8.8172    2.4560    0.0000 O   0  0  0  0  0  0  0  0  0  0  0  0
    6.1733   -4.5633    0.0000 O   0  0  0  0  0  0  0  0  0  0  0  0
    2.5244   -3.5464    0.0000 O   0  0  0  0  0  0  0  0  0  0  0  0
   11.7247    2.5578    0.0000 O   0  0  0  0  0  0  0  0  0  0  0  0
    7.9174   -0.4940    0.0000 C   0  0  1  0  0  0  0  0  0  0  0  0
    7.9174   -1.4940    0.0000 C   0  0  1  0  0  0  0  0  0  0  0  0
    8.8637   -0.1893    0.0000 C   0  0  3  0  0  0  0  0  0  0  0  0
    6.1854   -1.4940    0.0000 C   0  0  3  0  0  0  0  0  0  0  0  0
    5.2754   -2.0009    0.0000 C   0  0  2  0  0  0  0  0  0  0  0  0
    7.0514    0.0060    0.0000 C   0  0  0  0  0  0  0  0  0  0  0  0
    7.0514   -1.9940    0.0000 C   0  0  0  0  0  0  0  0  0  0  0  0
    8.8637   -1.7988    0.0000 C   0  0  0  0  0  0  0  0  0  0  0  0
    9.4473   -0.9940    0.0000 C   0  0  0  0  0  0  0  0  0  0  0  0
    6.1854   -0.4940    0.0000 C   0  0  0  0  0  0  0  0  0  0  0  0
    5.2674   -3.0425    0.0000 C   0  0  3  0  0  0  0  0  0  0  0  0
    9.1743    0.7612    0.0000 C   0  0  2  0  0  0  0  0  0  0  0  0
    7.9174    0.5060    0.0000 C   0  0  0  0  0  0  0  0  0  0  0  0
    4.3486   -1.4368    0.0000 C   0  0  0  0  0  0  0  0  0  0  0  0
    7.0675   -3.0356    0.0000 C   0  0  0  0  0  0  0  0  0  0  0  0
    4.3319   -3.5922    0.0000 C   0  0  0  0  0  0  0  0  0  0  0  0
    5.2831   -1.0009    0.0000 C   0  0  0  0  0  0  0  0  0  0  0  0
    6.1694   -3.5633    0.0000 C   0  0  0  0  0  0  0  0  0  0  0  0
    3.4007   -1.9648    0.0000 C   0  0  1  0  0  0  0  0  0  0  0  0
    9.4850    1.7117    0.0000 C   0  0  1  0  0  0  0  0  0  0  0  0
    3.3923   -3.0497    0.0000 C   0  0  2  0  0  0  0  0  0  0  0  0
    8.2238    1.0719    0.0000 C   0  0  0  0  0  0  0  0  0  0  0  0
   10.4635    1.9180    0.0000 C   0  0  0  0  0  0  0  0  0  0  0  0
   10.7742    2.8685    0.0000 C   0  0  2  0  0  0  0  0  0  0  0  0
   11.0848    3.8190    0.0000 C   0  0  0  0  0  0  0  0  0  0  0  0
    9.8236    3.1791    0.0000 C   0  0  0  0  0  0  0  0  0  0  0  0
   12.0633    4.0252    0.0000 C   0  0  0  0  0  0  0  0  0  0  0  0
   10.4170    4.5633    0.0000 C   0  0  0  0  0  0  0  0  0  0  0  0
    9.4762   -0.0931    0.0000 H   0  0  0  0  0  0  0  0  0  0  0  0
    6.7223   -1.1840    0.0000 H   0  0  0  0  0  0  0  0  0  0  0  0
    7.4500    0.4809    0.0000 H   0  0  0  0  0  0  0  0  0  0  0  0
    6.6529    0.4809    0.0000 H   0  0  0  0  0  0  0  0  0  0  0  0
    8.6126   -2.3657    0.0000 H   0  0  0  0  0  0  0  0  0  0  0  0
    9.4010   -2.1080    0.0000 H   0  0  0  0  0  0  0  0  0  0  0  0
    9.9081   -1.4088    0.0000 H   0  0  0  0  0  0  0  0  0  0  0  0
    9.9081   -0.5793    0.0000 H   0  0  0  0  0  0  0  0  0  0  0  0
    5.9733    0.0886    0.0000 H   0  0  0  0  0  0  0  0  0  0  0  0
    5.5748   -0.6017    0.0000 H   0  0  0  0  0  0  0  0  0  0  0  0
    5.2698   -3.6625    0.0000 H   0  0  0  0  0  0  0  0  0  0  0  0
    8.5374    0.5060    0.0000 H   0  0  0  0  0  0  0  0  0  0  0  0
    7.9174    1.1260    0.0000 H   0  0  0  0  0  0  0  0  0  0  0  0
    7.2974    0.5060    0.0000 H   0  0  0  0  0  0  0  0  0  0  0  0
    4.7568   -0.9701    0.0000 H   0  0  0  0  0  0  0  0  0  0  0  0
    3.9586   -0.9548    0.0000 H   0  0  0  0  0  0  0  0  0  0  0  0
    7.6080   -3.3393    0.0000 H   0  0  0  0  0  0  0  0  0  0  0  0
    3.9346   -4.0682    0.0000 H   0  0  0  0  0  0  0  0  0  0  0  0
    4.7329   -4.0651    0.0000 H   0  0  0  0  0  0  0  0  0  0  0  0
    5.9031   -1.0057    0.0000 H   0  0  0  0  0  0  0  0  0  0  0  0
    5.2879   -0.3809    0.0000 H   0  0  0  0  0  0  0  0  0  0  0  0
    4.6631   -0.9961    0.0000 H   0  0  0  0  0  0  0  0  0  0  0  0
    2.8608   -2.2696    0.0000 H   0  0  0  0  0  0  0  0  0  0  0  0
    8.4544   -2.8040    0.0000 H   0  0  0  0  0  0  0  0  0  0  0  0
    8.8783    1.5839    0.0000 H   0  0  0  0  0  0  0  0  0  0  0  0
    3.3911   -3.6697    0.0000 H   0  0  0  0  0  0  0  0  0  0  0  0
    8.4164    1.6612    0.0000 H   0  0  0  0  0  0  0  0  0  0  0  0
    7.6345    1.2645    0.0000 H   0  0  0  0  0  0  0  0  0  0  0  0
    8.0312    0.4826    0.0000 H   0  0  0  0  0  0  0  0  0  0  0  0
   10.5863    0.8646    0.0000 H   0  0  0  0  0  0  0  0  0  0  0  0
   10.4841    1.2983    0.0000 H   0  0  0  0  0  0  0  0  0  0  0  0
   11.0773    1.8306    0.0000 H   0  0  0  0  0  0  0  0  0  0  0  0
    2.0000   -1.7585    0.0000 H   0  0  0  0  0  0  0  0  0  0  0  0
    9.0098    3.0454    0.0000 H   0  0  0  0  0  0  0  0  0  0  0  0
    2.5220   -4.1664    0.0000 H   0  0  0  0  0  0  0  0  0  0  0  0
   10.4781    3.6911    0.0000 H   0  0  0  0  0  0  0  0  0  0  0  0
   10.0162    3.7685    0.0000 H   0  0  0  0  0  0  0  0  0  0  0  0
    9.2343    3.3717    0.0000 H   0  0  0  0  0  0  0  0  0  0  0  0
    9.6310    2.5898    0.0000 H   0  0  0  0  0  0  0  0  0  0  0  0
   11.8525    1.9511    0.0000 H   0  0  0  0  0  0  0  0  0  0  0  0
   12.1912    3.4185    0.0000 H   0  0  0  0  0  0  0  0  0  0  0  0
   12.6700    4.1531    0.0000 H   0  0  0  0  0  0  0  0  0  0  0  0
   11.9355    4.6319    0.0000 H   0  0  0  0  0  0  0  0  0  0  0  0
   10.8784    4.9774    0.0000 H   0  0  0  0  0  0  0  0  0  0  0  0
   10.0029    5.0248    0.0000 H   0  0  0  0  0  0  0  0  0  0  0  0
    9.9555    4.1492    0.0000 H   0  0  0  0  0  0  0  0  0  0  0  0
  9  1  1  6  0  0  0
  1 59  1  0  0  0  0
 19  2  1  1  0  0  0
  2 65  1  0  0  0  0
 26  3  1  1  0  0  0
  3 68  1  0  0  0  0
 27  4  1  6  0  0  0
  4 69  1  0  0  0  0
  5 25  2  0  0  0  0
 28  6  1  1  0  0  0
  6 70  1  0  0  0  0
 31  7  1  1  0  0  0
  7 75  1  0  0  0  0
  8  9  1  0  0  0  0
  8 10  1  0  0  0  0
  8 13  1  0  0  0  0
  8 20  1  1  0  0  0
  9 14  1  0  0  0  0
  9 15  1  0  0  0  0
 10 16  1  0  0  0  0
 10 19  1  0  0  0  0
 10 36  1  0  0  0  0
 11 12  1  0  0  0  0
 11 14  1  0  0  0  0
 11 17  1  0  0  0  0
 11 37  1  0  0  0  0
 12 18  1  0  0  0  0
 12 21  1  0  0  0  0
 12 24  1  1  0  0  0
 13 17  1  0  0  0  0
 13 38  1  0  0  0  0
 13 39  1  0  0  0  0
 14 22  2  0  0  0  0
 15 16  1  0  0  0  0
 15 40  1  0  0  0  0
 15 41  1  0  0  0  0
 16 42  1  0  0  0  0
 16 43  1  0  0  0  0
 17 44  1  0  0  0  0
 17 45  1  0  0  0  0
 18 23  1  0  0  0  0
 18 25  1  0  0  0  0
 18 46  1  0  0  0  0
 19 27  1  0  0  0  0
 19 29  1  0  0  0  0
 20 47  1  0  0  0  0
 20 48  1  0  0  0  0
 20 49  1  0  0  0  0
 21 26  1  0  0  0  0
 21 50  1  0  0  0  0
 21 51  1  0  0  0  0
 22 25  1  0  0  0  0
 22 52  1  0  0  0  0
 23 28  1  0  0  0  0
 23 53  1  0  0  0  0
 23 54  1  0  0  0  0
 24 55  1  0  0  0  0
 24 56  1  0  0  0  0
 24 57  1  0  0  0  0
 26 28  1  0  0  0  0
 26 58  1  0  0  0  0
 27 30  1  0  0  0  0
 27 60  1  0  0  0  0
 28 61  1  0  0  0  0
 29 62  1  0  0  0  0
 29 63  1  0  0  0  0
 29 64  1  0  0  0  0
 30 31  1  0  0  0  0
 30 66  1  0  0  0  0
 30 67  1  0  0  0  0
 31 32  1  0  0  0  0
 31 33  1  0  0  0  0
 32 34  1  0  0  0  0
 32 35  1  0  0  0  0
 32 71  1  0  0  0  0
 33 72  1  0  0  0  0
 33 73  1  0  0  0  0
 33 74  1  0  0  0  0
 34 76  1  0  0  0  0
 34 77  1  0  0  0  0
 34 78  1  0  0  0  0
 35 79  1  0  0  0  0
 35 80  1  0  0  0  0
 35 81  1  0  0  0  0
M  END
> <PUBCHEM_COMPOUND_CID>
46705465

> <PUBCHEM_COMPOUND_CANONICALIZED>
1

> <PUBCHEM_CACTVS_COMPLEXITY>
902

> <PUBCHEM_CACTVS_HBOND_ACCEPTOR>
7

> <PUBCHEM_CACTVS_HBOND_DONOR>
6

> <PUBCHEM_CACTVS_ROTATABLE_BOND>
5

> <PUBCHEM_CACTVS_SUBSKEYS>
AAADcfB4OAAAAAAAAAAAAAAAAAAAAYAAAAAwYIAAAAAAAGCAAAAAGgAACAAAD1SggAICAAAAAgCIAqBSAAAAAAAgAAAACAEAAEgBFBIAAQAAUAAFgAAJEQPK7PTPgAAAAAAAAADAAAYAADCAAYAADAAAAA==

> <PUBCHEM_IUPAC_OPENEYE_NAME>
(2S,3R,10R,13R,14S)-2,3,14-trihydroxy-10,13-dimethyl-17-[(1R,2R,4R)-1,2,4-trihydroxy-1,4,5-trimethyl-hexyl]-2,3,4,5,9,11,12,15,16,17-decahydro-1H-cyclopenta[a]phenanthren-6-one

> <PUBCHEM_IUPAC_CAS_NAME>
(2S,3R,10R,13R,14S)-2,3,14-trihydroxy-10,13-dimethyl-17-[(2R,3R,5R)-2,3,5-trihydroxy-5,6-dimethylheptan-2-yl]-2,3,4,5,9,11,12,15,16,17-decahydro-1H-cyclopenta[a]phenanthren-6-one

> <PUBCHEM_IUPAC_NAME_MARKUP>
(2<I>S</I>,3<I>R</I>,10<I>R</I>,13<I>R</I>,14<I>S</I>)-2,3,14-trihydroxy-10,13-dimethyl-17-[(2<I>R</I>,3<I>R</I>,5<I>R</I>)-2,3,5-trihydroxy-5,6-dimethylheptan-2-yl]-2,3,4,5,9,11,12,15,16,17-decahydro-1<I>H</I>-cyclopenta[a]phenanthren-6-one

> <PUBCHEM_IUPAC_NAME>
(2S,3R,10R,13R,14S)-2,3,14-trihydroxy-10,13-dimethyl-17-[(2R,3R,5R)-2,3,5-trihydroxy-5,6-dimethylheptan-2-yl]-2,3,4,5,9,11,12,15,16,17-decahydro-1H-cyclopenta[a]phenanthren-6-one

> <PUBCHEM_IUPAC_SYSTEMATIC_NAME>
(2S,3R,10R,13R,14S)-17-[(2R,3R,5R)-5,6-dimethyl-2,3,5-tris(oxidanyl)heptan-2-yl]-10,13-dimethyl-2,3,14-tris(oxidanyl)-2,3,4,5,9,11,12,15,16,17-decahydro-1H-cyclopenta[a]phenanthren-6-one

> <PUBCHEM_IUPAC_TRADITIONAL_NAME>
(2S,3R,10R,13R,14S)-2,3,14-trihydroxy-10,13-dimethyl-17-[(1R,2R,4R)-1,2,4-trihydroxy-1,4,5-trimethyl-hexyl]-2,3,4,5,9,11,12,15,16,17-decahydro-1H-cyclopenta[a]phenanthren-6-one

> <PUBCHEM_IUPAC_INCHI>
InChI=1S/C28H46O7/c1-15(2)26(5,33)14-23(32)27(6,34)22-8-10-28(35)17-11-19(29)18-12-20(30)21(31)13-24(18,3)16(17)7-9-25(22,28)4/h11,15-16,18,20-23,30-35H,7-10,12-14H2,1-6H3/t16?,18?,20-,21+,22?,23-,24-,25-,26-,27-,28-/m1/s1

> <PUBCHEM_IUPAC_INCHIKEY>
YXPVYQIMXPYFSF-IBKWGOALSA-N

> <PUBCHEM_XLOGP3_AA>
1.1

> <PUBCHEM_EXACT_MASS>
494.32435380

> <PUBCHEM_MOLECULAR_FORMULA>
C28H46O7

> <PUBCHEM_MOLECULAR_WEIGHT>
494.7

> <PUBCHEM_OPENEYE_CAN_SMILES>
CC(C)C(C)(CC(C(C)(C1CCC2(C1(CCC3C2=CC(=O)C4C3(CC(C(C4)O)O)C)C)O)O)O)O

> <PUBCHEM_OPENEYE_ISO_SMILES>
CC(C)[C@@](C)(C[C@H]([C@@](C)(C1CC[C@@]2([C@@]1(CCC3C2=CC(=O)C4[C@@]3(C[C@@H]([C@@H](C4)O)O)C)C)O)O)O)O

> <PUBCHEM_CACTVS_TPSA>
138

> <PUBCHEM_MONOISOTOPIC_WEIGHT>
494.32435380

> <PUBCHEM_TOTAL_CHARGE>
0

> <PUBCHEM_HEAVY_ATOM_COUNT>
35

> <PUBCHEM_ATOM_DEF_STEREO_COUNT>
8

> <PUBCHEM_ATOM_UDEF_STEREO_COUNT>
3

> <PUBCHEM_BOND_DEF_STEREO_COUNT>
0

> <PUBCHEM_BOND_UDEF_STEREO_COUNT>
0

> <PUBCHEM_ISOTOPIC_ATOM_COUNT>
0

> <PUBCHEM_COMPONENT_COUNT>
1

> <PUBCHEM_CACTVS_TAUTO_COUNT>
-1

> <PUBCHEM_COORDINATE_TYPE>
1
5
255

> <PUBCHEM_BONDANNOTATIONS>
9  1  6
10  16  3
11  17  3
12  24  5
18  23  3
19  2  5
26  3  5
27  4  6
28  6  5
31  7  5
8  20  5

$$$$
