 
  -OEChem-10192103552D

 23 23  0     0  0  0  0  0  0999 V2000
    4.5981    1.3450    0.0000 O   0  0  0  0  0  0  0  0  0  0  0  0
    2.8660    1.3450    0.0000 O   0  0  0  0  0  0  0  0  0  0  0  0
    6.3301    1.3450    0.0000 O   0  0  0  0  0  0  0  0  0  0  0  0
    3.7320   -0.1550    0.0000 C   0  0  0  0  0  0  0  0  0  0  0  0
    5.4641   -0.1550    0.0000 C   0  0  0  0  0  0  0  0  0  0  0  0
    4.5981    0.3450    0.0000 C   0  0  0  0  0  0  0  0  0  0  0  0
    3.7320   -1.1550    0.0000 C   0  0  0  0  0  0  0  0  0  0  0  0
    5.4641   -1.1550    0.0000 C   0  0  0  0  0  0  0  0  0  0  0  0
    4.5981   -1.6550    0.0000 C   0  0  0  0  0  0  0  0  0  0  0  0
    2.8660    0.3450    0.0000 C   0  0  0  0  0  0  0  0  0  0  0  0
    6.3301    0.3450    0.0000 C   0  0  0  0  0  0  0  0  0  0  0  0
    2.0000   -0.1550    0.0000 C   0  0  0  0  0  0  0  0  0  0  0  0
    7.1962   -0.1550    0.0000 C   0  0  0  0  0  0  0  0  0  0  0  0
    3.1951   -1.4650    0.0000 H   0  0  0  0  0  0  0  0  0  0  0  0
    6.0010   -1.4650    0.0000 H   0  0  0  0  0  0  0  0  0  0  0  0
    4.5981   -2.2750    0.0000 H   0  0  0  0  0  0  0  0  0  0  0  0
    1.6900    0.3819    0.0000 H   0  0  0  0  0  0  0  0  0  0  0  0
    1.4631   -0.4650    0.0000 H   0  0  0  0  0  0  0  0  0  0  0  0
    2.3100   -0.6919    0.0000 H   0  0  0  0  0  0  0  0  0  0  0  0
    6.8862   -0.6919    0.0000 H   0  0  0  0  0  0  0  0  0  0  0  0
    7.7331   -0.4650    0.0000 H   0  0  0  0  0  0  0  0  0  0  0  0
    7.5062    0.3819    0.0000 H   0  0  0  0  0  0  0  0  0  0  0  0
    5.1350    1.6550    0.0000 H   0  0  0  0  0  0  0  0  0  0  0  0
  1  6  1  0  0  0  0
  1 23  1  0  0  0  0
  2 10  2  0  0  0  0
  3 11  2  0  0  0  0
  4  6  2  0  0  0  0
  4  7  1  0  0  0  0
  4 10  1  0  0  0  0
  5  6  1  0  0  0  0
  5  8  2  0  0  0  0
  5 11  1  0  0  0  0
  7  9  2  0  0  0  0
  7 14  1  0  0  0  0
  8  9  1  0  0  0  0
  8 15  1  0  0  0  0
  9 16  1  0  0  0  0
 10 12  1  0  0  0  0
 11 13  1  0  0  0  0
 12 17  1  0  0  0  0
 12 18  1  0  0  0  0
 12 19  1  0  0  0  0
 13 20  1  0  0  0  0
 13 21  1  0  0  0  0
 13 22  1  0  0  0  0
M  END
> <PUBCHEM_COMPOUND_CID>
13485913

> <PUBCHEM_COMPOUND_CANONICALIZED>
1

> <PUBCHEM_CACTVS_COMPLEXITY>
200

> <PUBCHEM_CACTVS_HBOND_ACCEPTOR>
3

> <PUBCHEM_CACTVS_HBOND_DONOR>
1

> <PUBCHEM_CACTVS_ROTATABLE_BOND>
2

> <PUBCHEM_CACTVS_SUBSKEYS>
AAADccBwMAAAAAAAAAAAAAAAAAAAAAAAAAAwAAAAAAAAAAABAAAAGgAACAAADASAmAAyBoAAAgCIAqBSAAACAAAkIAAIiAEECMgIJjaCFRKAcUAk4BEImYeIyuCuAAACAAAIAAAAAAQAABAAAAAAAAAAAA==

> <PUBCHEM_IUPAC_OPENEYE_NAME>
1-(3-acetyl-2-hydroxy-phenyl)ethanone

> <PUBCHEM_IUPAC_CAS_NAME>
1-(3-acetyl-2-hydroxyphenyl)ethanone

> <PUBCHEM_IUPAC_NAME_MARKUP>
1-(3-acetyl-2-hydroxyphenyl)ethanone

> <PUBCHEM_IUPAC_NAME>
1-(3-acetyl-2-hydroxyphenyl)ethanone

> <PUBCHEM_IUPAC_SYSTEMATIC_NAME>
1-(3-ethanoyl-2-oxidanyl-phenyl)ethanone

> <PUBCHEM_IUPAC_TRADITIONAL_NAME>
1-(3-acetyl-2-hydroxy-phenyl)ethanone

> <PUBCHEM_IUPAC_INCHI>
InChI=1S/C10H10O3/c1-6(11)8-4-3-5-9(7(2)12)10(8)13/h3-5,13H,1-2H3

> <PUBCHEM_IUPAC_INCHIKEY>
XGDPKNPKFQJUFN-UHFFFAOYSA-N

> <PUBCHEM_XLOGP3_AA>
1.5

> <PUBCHEM_EXACT_MASS>
178.062994177

> <PUBCHEM_MOLECULAR_FORMULA>
C10H10O3

> <PUBCHEM_MOLECULAR_WEIGHT>
178.18

> <PUBCHEM_OPENEYE_CAN_SMILES>
CC(=O)C1=C(C(=CC=C1)C(=O)C)O

> <PUBCHEM_OPENEYE_ISO_SMILES>
CC(=O)C1=C(C(=CC=C1)C(=O)C)O

> <PUBCHEM_CACTVS_TPSA>
54.4

> <PUBCHEM_MONOISOTOPIC_WEIGHT>
178.062994177

> <PUBCHEM_TOTAL_CHARGE>
0

> <PUBCHEM_HEAVY_ATOM_COUNT>
13

> <PUBCHEM_ATOM_DEF_STEREO_COUNT>
0

> <PUBCHEM_ATOM_UDEF_STEREO_COUNT>
0

> <PUBCHEM_BOND_DEF_STEREO_COUNT>
0

> <PUBCHEM_BOND_UDEF_STEREO_COUNT>
0

> <PUBCHEM_ISOTOPIC_ATOM_COUNT>
0

> <PUBCHEM_COMPONENT_COUNT>
1

> <PUBCHEM_CACTVS_TAUTO_COUNT>
-1

> <PUBCHEM_COORDINATE_TYPE>
1
5
255

> <PUBCHEM_BONDANNOTATIONS>
4  6  8
4  7  8
5  6  8
5  8  8
7  9  8
8  9  8

$$$$
