 
  -OEChem-10192104062D

 50 52  0     0  0  0  0  0  0999 V2000
    8.2449    0.4219    0.0000 O   0  0  0  0  0  0  0  0  0  0  0  0
    6.5128   -2.5781    0.0000 O   0  0  0  0  0  0  0  0  0  0  0  0
    8.2449   -1.5781    0.0000 O   0  0  0  0  0  0  0  0  0  0  0  0
    5.9942   -3.0477    0.0000 O   0  0  0  0  0  0  0  0  0  0  0  0
    4.7808    1.4219    0.0000 O   0  0  0  0  0  0  0  0  0  0  0  0
    4.0193    0.5144    0.0000 O   0  0  0  0  0  0  0  0  0  0  0  0
    4.4621   -4.3333    0.0000 O   0  0  0  0  0  0  0  0  0  0  0  0
    4.7808    3.4219    0.0000 O   0  0  0  0  0  0  0  0  0  0  0  0
    2.5826   -3.6493    0.0000 O   0  0  0  0  0  0  0  0  0  0  0  0
    6.5128    4.4219    0.0000 O   0  0  0  0  0  0  0  0  0  0  0  0
    5.7701    1.3307    0.0000 O   0  0  0  0  0  0  0  0  0  0  0  0
    2.8277   -0.0521    0.0000 O   0  0  0  0  0  0  0  0  0  0  0  0
    8.7057    3.0352    0.0000 O   0  0  0  0  0  0  0  0  0  0  0  0
    4.6335    0.1059    0.0000 O   0  0  0  0  0  0  0  0  0  0  0  0
    9.0065    1.3295    0.0000 O   0  0  0  0  0  0  0  0  0  0  0  0
    5.6468   -1.0781    0.0000 C   0  0  0  0  0  0  0  0  0  0  0  0
    6.5128    0.4219    0.0000 C   0  0  0  0  0  0  0  0  0  0  0  0
    5.6468   -0.0781    0.0000 C   0  0  0  0  0  0  0  0  0  0  0  0
    4.8808   -1.7209    0.0000 C   0  0  0  0  0  0  0  0  0  0  0  0
    6.5128    1.4219    0.0000 C   0  0  0  0  0  0  0  0  0  0  0  0
    7.3789   -0.0781    0.0000 C   0  0  0  0  0  0  0  0  0  0  0  0
    6.5128   -1.5781    0.0000 C   0  0  0  0  0  0  0  0  0  0  0  0
    7.3789   -1.0781    0.0000 C   0  0  0  0  0  0  0  0  0  0  0  0
    3.9411   -1.3788    0.0000 C   0  0  0  0  0  0  0  0  0  0  0  0
    7.3789    1.9219    0.0000 C   0  0  0  0  0  0  0  0  0  0  0  0
    5.0544   -2.7057    0.0000 C   0  0  0  0  0  0  0  0  0  0  0  0
    5.6468    1.9219    0.0000 C   0  0  0  0  0  0  0  0  0  0  0  0
    5.0040    0.6879    0.0000 C   0  0  0  0  0  0  0  0  0  0  0  0
    3.1750   -2.0216    0.0000 C   0  0  0  0  0  0  0  0  0  0  0  0
    7.3789    2.9219    0.0000 C   0  0  0  0  0  0  0  0  0  0  0  0
    4.2884   -3.3485    0.0000 C   0  0  0  0  0  0  0  0  0  0  0  0
    5.6468    2.9219    0.0000 C   0  0  0  0  0  0  0  0  0  0  0  0
    3.3487   -3.0065    0.0000 C   0  0  0  0  0  0  0  0  0  0  0  0
    6.5128    3.4219    0.0000 C   0  0  0  0  0  0  0  0  0  0  0  0
    3.7674   -0.3941    0.0000 C   0  0  0  0  0  0  0  0  0  0  0  0
    8.3637    2.0955    0.0000 C   0  0  0  0  0  0  0  0  0  0  0  0
    2.5924   -1.8096    0.0000 H   0  0  0  0  0  0  0  0  0  0  0  0
    7.9158    3.2319    0.0000 H   0  0  0  0  0  0  0  0  0  0  0  0
    8.7818    0.1119    0.0000 H   0  0  0  0  0  0  0  0  0  0  0  0
    7.0498   -2.8881    0.0000 H   0  0  0  0  0  0  0  0  0  0  0  0
    8.7818   -1.2681    0.0000 H   0  0  0  0  0  0  0  0  0  0  0  0
    6.1019   -3.6583    0.0000 H   0  0  0  0  0  0  0  0  0  0  0  0
    4.2438    1.7319    0.0000 H   0  0  0  0  0  0  0  0  0  0  0  0
    3.6207    0.9892    0.0000 H   0  0  0  0  0  0  0  0  0  0  0  0
    3.9871   -4.7319    0.0000 H   0  0  0  0  0  0  0  0  0  0  0  0
    4.7808    4.0419    0.0000 H   0  0  0  0  0  0  0  0  0  0  0  0
    2.0000   -3.4372    0.0000 H   0  0  0  0  0  0  0  0  0  0  0  0
    7.0498    4.7319    0.0000 H   0  0  0  0  0  0  0  0  0  0  0  0
    2.3528   -0.4506    0.0000 H   0  0  0  0  0  0  0  0  0  0  0  0
    9.3163    3.1429    0.0000 H   0  0  0  0  0  0  0  0  0  0  0  0
  1 21  1  0  0  0  0
  1 39  1  0  0  0  0
  2 22  1  0  0  0  0
  2 40  1  0  0  0  0
  3 23  1  0  0  0  0
  3 41  1  0  0  0  0
  4 26  1  0  0  0  0
  4 42  1  0  0  0  0
  5 27  1  0  0  0  0
  5 43  1  0  0  0  0
  6 28  1  0  0  0  0
  6 44  1  0  0  0  0
  7 31  1  0  0  0  0
  7 45  1  0  0  0  0
  8 32  1  0  0  0  0
  8 46  1  0  0  0  0
  9 33  1  0  0  0  0
  9 47  1  0  0  0  0
 10 34  1  0  0  0  0
 10 48  1  0  0  0  0
 11 28  2  0  0  0  0
 12 35  1  0  0  0  0
 12 49  1  0  0  0  0
 13 36  1  0  0  0  0
 13 50  1  0  0  0  0
 14 35  2  0  0  0  0
 15 36  2  0  0  0  0
 16 18  2  0  0  0  0
 16 19  1  0  0  0  0
 16 22  1  0  0  0  0
 17 18  1  0  0  0  0
 17 20  1  0  0  0  0
 17 21  2  0  0  0  0
 18 28  1  0  0  0  0
 19 24  1  0  0  0  0
 19 26  2  0  0  0  0
 20 25  1  0  0  0  0
 20 27  2  0  0  0  0
 21 23  1  0  0  0  0
 22 23  2  0  0  0  0
 24 29  2  0  0  0  0
 24 35  1  0  0  0  0
 25 30  2  0  0  0  0
 25 36  1  0  0  0  0
 26 31  1  0  0  0  0
 27 32  1  0  0  0  0
 29 33  1  0  0  0  0
 29 37  1  0  0  0  0
 30 34  1  0  0  0  0
 30 38  1  0  0  0  0
 31 33  2  0  0  0  0
 32 34  2  0  0  0  0
M  END
> <PUBCHEM_COMPOUND_CID>
102494986

> <PUBCHEM_COMPOUND_CANONICALIZED>
1

> <PUBCHEM_CACTVS_COMPLEXITY>
791

> <PUBCHEM_CACTVS_HBOND_ACCEPTOR>
15

> <PUBCHEM_CACTVS_HBOND_DONOR>
12

> <PUBCHEM_CACTVS_ROTATABLE_BOND>
5

> <PUBCHEM_CACTVS_SUBSKEYS>
AAADccB4PAAAAAAAAAAAAAAAAAAAAAAAAAAwYMAAAAAAAAABUAAAGgAACAAADASAmAAwDoAAAgCIAiDSCAACAAAkIAAAiAEGiMgJJzKCFBKAcQElwBUJmYfK7PTOoAADCAAYQABAAAYQADCAAAAAAAAAAA==

> <PUBCHEM_IUPAC_OPENEYE_NAME>
2,6-bis(6-carboxy-2,3,4-trihydroxy-phenyl)-3,4,5-trihydroxy-benzoic acid

> <PUBCHEM_IUPAC_CAS_NAME>
2,6-bis(6-carboxy-2,3,4-trihydroxyphenyl)-3,4,5-trihydroxybenzoic acid

> <PUBCHEM_IUPAC_NAME_MARKUP>
2,6-bis(6-carboxy-2,3,4-trihydroxyphenyl)-3,4,5-trihydroxybenzoic acid

> <PUBCHEM_IUPAC_NAME>
2,6-bis(6-carboxy-2,3,4-trihydroxyphenyl)-3,4,5-trihydroxybenzoic acid

> <PUBCHEM_IUPAC_SYSTEMATIC_NAME>
2,6-bis[6-carboxy-2,3,4-tris(oxidanyl)phenyl]-3,4,5-tris(oxidanyl)benzoic acid

> <PUBCHEM_IUPAC_TRADITIONAL_NAME>
2,6-bis(6-carboxy-2,3,4-trihydroxy-phenyl)-3,4,5-trihydroxy-benzoic acid

> <PUBCHEM_IUPAC_INCHI>
InChI=1S/C21H14O15/c22-5-1-3(19(31)32)7(14(26)12(5)24)9-11(21(35)36)10(17(29)18(30)16(9)28)8-4(20(33)34)2-6(23)13(25)15(8)27/h1-2,22-30H,(H,31,32)(H,33,34)(H,35,36)

> <PUBCHEM_IUPAC_INCHIKEY>
KLKCDGZVVKFBQP-UHFFFAOYSA-N

> <PUBCHEM_XLOGP3_AA>
0.6

> <PUBCHEM_EXACT_MASS>
506.03326974

> <PUBCHEM_MOLECULAR_FORMULA>
C21H14O15

> <PUBCHEM_MOLECULAR_WEIGHT>
506.3

> <PUBCHEM_OPENEYE_CAN_SMILES>
C1=C(C(=C(C(=C1O)O)O)C2=C(C(=C(C(=C2O)O)O)C3=C(C(=C(C=C3C(=O)O)O)O)O)C(=O)O)C(=O)O

> <PUBCHEM_OPENEYE_ISO_SMILES>
C1=C(C(=C(C(=C1O)O)O)C2=C(C(=C(C(=C2O)O)O)C3=C(C(=C(C=C3C(=O)O)O)O)O)C(=O)O)C(=O)O

> <PUBCHEM_CACTVS_TPSA>
294

> <PUBCHEM_MONOISOTOPIC_WEIGHT>
506.03326974

> <PUBCHEM_TOTAL_CHARGE>
0

> <PUBCHEM_HEAVY_ATOM_COUNT>
36

> <PUBCHEM_ATOM_DEF_STEREO_COUNT>
0

> <PUBCHEM_ATOM_UDEF_STEREO_COUNT>
0

> <PUBCHEM_BOND_DEF_STEREO_COUNT>
0

> <PUBCHEM_BOND_UDEF_STEREO_COUNT>
0

> <PUBCHEM_ISOTOPIC_ATOM_COUNT>
0

> <PUBCHEM_COMPONENT_COUNT>
1

> <PUBCHEM_CACTVS_TAUTO_COUNT>
-1

> <PUBCHEM_COORDINATE_TYPE>
1
5
255

> <PUBCHEM_BONDANNOTATIONS>
16  18  8
16  22  8
17  18  8
17  21  8
19  24  8
19  26  8
20  25  8
20  27  8
21  23  8
22  23  8
24  29  8
25  30  8
26  31  8
27  32  8
29  33  8
30  34  8
31  33  8
32  34  8

$$$$
