 
  -OEChem-10192103262D

 91 91  0     1  0  0  0  0  0999 V2000
    7.1962    1.0000    0.0000 O   0  0  0  0  0  0  0  0  0  0  0  0
    5.4641   -1.0000    0.0000 O   0  0  0  0  0  0  0  0  0  0  0  0
    7.1962   -2.0000    0.0000 O   0  0  0  0  0  0  0  0  0  0  0  0
    8.9282   -1.0000    0.0000 O   0  0  0  0  0  0  0  0  0  0  0  0
    8.9282    1.0000    0.0000 O   0  0  0  0  0  0  0  0  0  0  0  0
    5.4641    2.0000    0.0000 O   0  0  0  0  0  0  0  0  0  0  0  0
    8.0622   -2.5000    0.0000 O   0  0  0  0  0  0  0  0  0  0  0  0
    9.7942   -0.5000    0.0000 O   0  0  0  0  0  0  0  0  0  0  0  0
    8.9282    2.0000    0.0000 O   0  0  0  0  0  0  0  0  0  0  0  0
    4.5981    0.5000    0.0000 O   0  0  0  0  0  0  0  0  0  0  0  0
    3.7320    2.0000    0.0000 O   0  0  0  0  0  0  0  0  0  0  0  0
    6.3301   -0.5000    0.0000 C   0  0  3  0  0  0  0  0  0  0  0  0
    7.1962   -1.0000    0.0000 C   0  0  3  0  0  0  0  0  0  0  0  0
    6.3301    0.5000    0.0000 C   0  0  3  0  0  0  0  0  0  0  0  0
    8.0622   -0.5000    0.0000 C   0  0  3  0  0  0  0  0  0  0  0  0
    8.0622    0.5000    0.0000 C   0  0  3  0  0  0  0  0  0  0  0  0
    5.4641    1.0000    0.0000 C   0  0  0  0  0  0  0  0  0  0  0  0
    4.5981   -0.5000    0.0000 C   0  0  0  0  0  0  0  0  0  0  0  0
    3.7320   -1.0000    0.0000 C   0  0  0  0  0  0  0  0  0  0  0  0
    4.5981    2.5000    0.0000 C   0  0  0  0  0  0  0  0  0  0  0  0
    2.8660   -0.5000    0.0000 C   0  0  0  0  0  0  0  0  0  0  0  0
    4.5981    3.5000    0.0000 C   0  0  0  0  0  0  0  0  0  0  0  0
    8.0622   -3.5000    0.0000 C   0  0  0  0  0  0  0  0  0  0  0  0
   10.6603   -1.0000    0.0000 C   0  0  0  0  0  0  0  0  0  0  0  0
    9.7942    2.5000    0.0000 C   0  0  0  0  0  0  0  0  0  0  0  0
    3.7320    4.0000    0.0000 C   0  0  0  0  0  0  0  0  0  0  0  0
    8.9282   -4.0000    0.0000 C   0  0  0  0  0  0  0  0  0  0  0  0
   11.5263   -0.5000    0.0000 C   0  0  0  0  0  0  0  0  0  0  0  0
    2.0000   -1.0000    0.0000 C   0  0  0  0  0  0  0  0  0  0  0  0
    9.7942    3.5000    0.0000 C   0  0  0  0  0  0  0  0  0  0  0  0
    3.7320    5.0000    0.0000 C   0  0  0  0  0  0  0  0  0  0  0  0
    8.9282   -5.0000    0.0000 C   0  0  0  0  0  0  0  0  0  0  0  0
   12.3923   -1.0000    0.0000 C   0  0  0  0  0  0  0  0  0  0  0  0
    7.1962   -4.0000    0.0000 C   0  0  0  0  0  0  0  0  0  0  0  0
   10.6603   -2.0000    0.0000 C   0  0  0  0  0  0  0  0  0  0  0  0
   10.6603    4.0000    0.0000 C   0  0  0  0  0  0  0  0  0  0  0  0
   10.6603    2.0000    0.0000 C   0  0  0  0  0  0  0  0  0  0  0  0
    2.8660    5.5000    0.0000 C   0  0  0  0  0  0  0  0  0  0  0  0
    9.7942   -5.5000    0.0000 C   0  0  0  0  0  0  0  0  0  0  0  0
   13.2583   -0.5000    0.0000 C   0  0  0  0  0  0  0  0  0  0  0  0
   10.6603    5.0000    0.0000 C   0  0  0  0  0  0  0  0  0  0  0  0
    6.3301   -1.1200    0.0000 H   0  0  0  0  0  0  0  0  0  0  0  0
    6.6592   -1.3100    0.0000 H   0  0  0  0  0  0  0  0  0  0  0  0
    6.3301    1.1200    0.0000 H   0  0  0  0  0  0  0  0  0  0  0  0
    8.0622   -1.1200    0.0000 H   0  0  0  0  0  0  0  0  0  0  0  0
    8.0622    1.1200    0.0000 H   0  0  0  0  0  0  0  0  0  0  0  0
    4.8535    1.1077    0.0000 H   0  0  0  0  0  0  0  0  0  0  0  0
    5.2520    0.4174    0.0000 H   0  0  0  0  0  0  0  0  0  0  0  0
    3.3335   -1.4750    0.0000 H   0  0  0  0  0  0  0  0  0  0  0  0
    4.1306   -1.4750    0.0000 H   0  0  0  0  0  0  0  0  0  0  0  0
    3.2646   -0.0251    0.0000 H   0  0  0  0  0  0  0  0  0  0  0  0
    2.4675   -0.0251    0.0000 H   0  0  0  0  0  0  0  0  0  0  0  0
    5.2087    3.3923    0.0000 H   0  0  0  0  0  0  0  0  0  0  0  0
    4.8101    4.0826    0.0000 H   0  0  0  0  0  0  0  0  0  0  0  0
    3.1215    4.1077    0.0000 H   0  0  0  0  0  0  0  0  0  0  0  0
    3.5200    3.4174    0.0000 H   0  0  0  0  0  0  0  0  0  0  0  0
    9.5388   -4.1077    0.0000 H   0  0  0  0  0  0  0  0  0  0  0  0
    9.1403   -3.4174    0.0000 H   0  0  0  0  0  0  0  0  0  0  0  0
   11.9248   -0.0251    0.0000 H   0  0  0  0  0  0  0  0  0  0  0  0
   11.1278   -0.0251    0.0000 H   0  0  0  0  0  0  0  0  0  0  0  0
    1.6900   -0.4631    0.0000 H   0  0  0  0  0  0  0  0  0  0  0  0
    1.4631   -1.3100    0.0000 H   0  0  0  0  0  0  0  0  0  0  0  0
    2.3100   -1.5369    0.0000 H   0  0  0  0  0  0  0  0  0  0  0  0
    9.5822    4.0826    0.0000 H   0  0  0  0  0  0  0  0  0  0  0  0
    9.1836    3.3923    0.0000 H   0  0  0  0  0  0  0  0  0  0  0  0
    4.3426    4.8923    0.0000 H   0  0  0  0  0  0  0  0  0  0  0  0
    3.9441    5.5826    0.0000 H   0  0  0  0  0  0  0  0  0  0  0  0
    8.3176   -4.8923    0.0000 H   0  0  0  0  0  0  0  0  0  0  0  0
    8.7162   -5.5826    0.0000 H   0  0  0  0  0  0  0  0  0  0  0  0
   11.9938   -1.4750    0.0000 H   0  0  0  0  0  0  0  0  0  0  0  0
   12.7908   -1.4750    0.0000 H   0  0  0  0  0  0  0  0  0  0  0  0
    6.6592   -3.6900    0.0000 H   0  0  0  0  0  0  0  0  0  0  0  0
    7.1962   -4.6200    0.0000 H   0  0  0  0  0  0  0  0  0  0  0  0
   10.1233   -2.3100    0.0000 H   0  0  0  0  0  0  0  0  0  0  0  0
   11.1972   -2.3100    0.0000 H   0  0  0  0  0  0  0  0  0  0  0  0
   10.8723    3.4174    0.0000 H   0  0  0  0  0  0  0  0  0  0  0  0
   11.2708    4.1077    0.0000 H   0  0  0  0  0  0  0  0  0  0  0  0
   10.6603    1.3800    0.0000 H   0  0  0  0  0  0  0  0  0  0  0  0
   11.1972    2.3100    0.0000 H   0  0  0  0  0  0  0  0  0  0  0  0
    3.1760    6.0369    0.0000 H   0  0  0  0  0  0  0  0  0  0  0  0
    2.3291    5.8100    0.0000 H   0  0  0  0  0  0  0  0  0  0  0  0
    2.5560    4.9631    0.0000 H   0  0  0  0  0  0  0  0  0  0  0  0
    9.4842   -6.0369    0.0000 H   0  0  0  0  0  0  0  0  0  0  0  0
   10.3312   -5.8100    0.0000 H   0  0  0  0  0  0  0  0  0  0  0  0
   10.1042   -4.9631    0.0000 H   0  0  0  0  0  0  0  0  0  0  0  0
   13.5683   -1.0369    0.0000 H   0  0  0  0  0  0  0  0  0  0  0  0
   13.7953   -0.1900    0.0000 H   0  0  0  0  0  0  0  0  0  0  0  0
   12.9483    0.0369    0.0000 H   0  0  0  0  0  0  0  0  0  0  0  0
   11.2803    5.0000    0.0000 H   0  0  0  0  0  0  0  0  0  0  0  0
   10.6603    5.6200    0.0000 H   0  0  0  0  0  0  0  0  0  0  0  0
   10.0403    5.0000    0.0000 H   0  0  0  0  0  0  0  0  0  0  0  0
  1 14  1  0  0  0  0
  1 16  1  0  0  0  0
  2 12  1  0  0  0  0
  2 18  1  0  0  0  0
  3  7  1  0  0  0  0
  3 13  1  0  0  0  0
  4  8  1  0  0  0  0
  4 15  1  0  0  0  0
  5  9  1  0  0  0  0
  5 16  1  0  0  0  0
  6 17  1  0  0  0  0
  6 20  1  0  0  0  0
  7 23  1  0  0  0  0
  8 24  1  0  0  0  0
  9 25  1  0  0  0  0
 10 18  2  0  0  0  0
 11 20  2  0  0  0  0
 12 13  1  0  0  0  0
 12 14  1  0  0  0  0
 12 42  1  0  0  0  0
 13 15  1  0  0  0  0
 13 43  1  0  0  0  0
 14 17  1  0  0  0  0
 14 44  1  0  0  0  0
 15 16  1  0  0  0  0
 15 45  1  0  0  0  0
 16 46  1  0  0  0  0
 17 47  1  0  0  0  0
 17 48  1  0  0  0  0
 18 19  1  0  0  0  0
 19 21  1  0  0  0  0
 19 49  1  0  0  0  0
 19 50  1  0  0  0  0
 20 22  1  0  0  0  0
 21 29  1  0  0  0  0
 21 51  1  0  0  0  0
 21 52  1  0  0  0  0
 22 26  1  0  0  0  0
 22 53  1  0  0  0  0
 22 54  1  0  0  0  0
 23 27  1  0  0  0  0
 23 34  2  0  0  0  0
 24 28  1  0  0  0  0
 24 35  2  0  0  0  0
 25 30  1  0  0  0  0
 25 37  2  0  0  0  0
 26 31  1  0  0  0  0
 26 55  1  0  0  0  0
 26 56  1  0  0  0  0
 27 32  1  0  0  0  0
 27 57  1  0  0  0  0
 27 58  1  0  0  0  0
 28 33  1  0  0  0  0
 28 59  1  0  0  0  0
 28 60  1  0  0  0  0
 29 61  1  0  0  0  0
 29 62  1  0  0  0  0
 29 63  1  0  0  0  0
 30 36  1  0  0  0  0
 30 64  1  0  0  0  0
 30 65  1  0  0  0  0
 31 38  1  0  0  0  0
 31 66  1  0  0  0  0
 31 67  1  0  0  0  0
 32 39  1  0  0  0  0
 32 68  1  0  0  0  0
 32 69  1  0  0  0  0
 33 40  1  0  0  0  0
 33 70  1  0  0  0  0
 33 71  1  0  0  0  0
 34 72  1  0  0  0  0
 34 73  1  0  0  0  0
 35 74  1  0  0  0  0
 35 75  1  0  0  0  0
 36 41  1  0  0  0  0
 36 76  1  0  0  0  0
 36 77  1  0  0  0  0
 37 78  1  0  0  0  0
 37 79  1  0  0  0  0
 38 80  1  0  0  0  0
 38 81  1  0  0  0  0
 38 82  1  0  0  0  0
 39 83  1  0  0  0  0
 39 84  1  0  0  0  0
 39 85  1  0  0  0  0
 40 86  1  0  0  0  0
 40 87  1  0  0  0  0
 40 88  1  0  0  0  0
 41 89  1  0  0  0  0
 41 90  1  0  0  0  0
 41 91  1  0  0  0  0
M  END
> <PUBCHEM_COMPOUND_CID>
57689058

> <PUBCHEM_COMPOUND_CANONICALIZED>
1

> <PUBCHEM_CACTVS_COMPLEXITY>
812

> <PUBCHEM_CACTVS_HBOND_ACCEPTOR>
11

> <PUBCHEM_CACTVS_HBOND_DONOR>
0

> <PUBCHEM_CACTVS_ROTATABLE_BOND>
25

> <PUBCHEM_CACTVS_SUBSKEYS>
AAADcfB4PAAAAAAAAAAAAAAAAAAAAAAAAAAkAAAAAAAAAAAAAAAAGgAABAAACBSwgAMCCAAABACIAADSCAAAAAAgAAAAAAEAAAgRABIAAQACAAAFgAAGAAHIYAwAAAAAAAAAAAAAAAAAAAAAAAAAAAAAAA==

> <PUBCHEM_IUPAC_OPENEYE_NAME>
[3-butanoyloxy-4,5,6-tris(1-methylenebutylperoxy)tetrahydropyran-2-yl]methyl pentanoate

> <PUBCHEM_IUPAC_CAS_NAME>
pentanoic acid [3-(1-oxobutoxy)-4,5,6-tris(pent-1-en-2-yldioxy)-2-oxanyl]methyl ester

> <PUBCHEM_IUPAC_NAME_MARKUP>
[3-butanoyloxy-4,5,6-tris(pent-1-en-2-ylperoxy)oxan-2-yl]methyl pentanoate

> <PUBCHEM_IUPAC_NAME>
[3-butanoyloxy-4,5,6-tris(pent-1-en-2-ylperoxy)oxan-2-yl]methyl pentanoate

> <PUBCHEM_IUPAC_SYSTEMATIC_NAME>
[3-butanoyloxy-4,5,6-tris(pent-1-en-2-ylperoxy)oxan-2-yl]methyl pentanoate

> <PUBCHEM_IUPAC_TRADITIONAL_NAME>
valeric acid [3-butyryloxy-4,5,6-tris(1-propylvinylperoxy)tetrahydropyran-2-yl]methyl ester

> <PUBCHEM_IUPAC_INCHI>
InChI=1S/C30H50O11/c1-9-14-19-25(31)33-20-24-27(35-26(32)18-13-5)28(39-36-21(6)15-10-2)29(40-37-22(7)16-11-3)30(34-24)41-38-23(8)17-12-4/h24,27-30H,6-20H2,1-5H3

> <PUBCHEM_IUPAC_INCHIKEY>
HLAHNARZHDYYIJ-UHFFFAOYSA-N

> <PUBCHEM_XLOGP3_AA>
7.7

> <PUBCHEM_EXACT_MASS>
586.33531241

> <PUBCHEM_MOLECULAR_FORMULA>
C30H50O11

> <PUBCHEM_MOLECULAR_WEIGHT>
586.7

> <PUBCHEM_OPENEYE_CAN_SMILES>
CCCCC(=O)OCC1C(C(C(C(O1)OOC(=C)CCC)OOC(=C)CCC)OOC(=C)CCC)OC(=O)CCC

> <PUBCHEM_OPENEYE_ISO_SMILES>
CCCCC(=O)OCC1C(C(C(C(O1)OOC(=C)CCC)OOC(=C)CCC)OOC(=C)CCC)OC(=O)CCC

> <PUBCHEM_CACTVS_TPSA>
117

> <PUBCHEM_MONOISOTOPIC_WEIGHT>
586.33531241

> <PUBCHEM_TOTAL_CHARGE>
0

> <PUBCHEM_HEAVY_ATOM_COUNT>
41

> <PUBCHEM_ATOM_DEF_STEREO_COUNT>
0

> <PUBCHEM_ATOM_UDEF_STEREO_COUNT>
5

> <PUBCHEM_BOND_DEF_STEREO_COUNT>
0

> <PUBCHEM_BOND_UDEF_STEREO_COUNT>
0

> <PUBCHEM_ISOTOPIC_ATOM_COUNT>
0

> <PUBCHEM_COMPONENT_COUNT>
1

> <PUBCHEM_CACTVS_TAUTO_COUNT>
-1

> <PUBCHEM_COORDINATE_TYPE>
1
5
255

> <PUBCHEM_BONDANNOTATIONS>
14  17  3
12  2  3
13  3  3
15  4  3
16  5  3

$$$$
