 
  -OEChem-10192104222D

 64 66  0     1  0  0  0  0  0999 V2000
    6.0010    0.4050    0.0000 O   0  0  0  0  0  0  0  0  0  0  0  0
    8.9900    2.6602    0.0000 O   0  0  0  0  0  0  0  0  0  0  0  0
   10.2629    0.9050    0.0000 O   0  0  0  0  0  0  0  0  0  0  0  0
    6.8671   -1.0950    0.0000 O   0  0  0  0  0  0  0  0  0  0  0  0
    5.1350   -1.0950    0.0000 O   0  0  0  0  0  0  0  0  0  0  0  0
    6.0010    3.4050    0.0000 O   0  0  0  0  0  0  0  0  0  0  0  0
    6.8671   -3.0950    0.0000 O   0  0  0  0  0  0  0  0  0  0  0  0
    7.7331    3.4050    0.0000 O   0  0  0  0  0  0  0  0  0  0  0  0
    5.1350   -4.0950    0.0000 O   0  0  0  0  0  0  0  0  0  0  0  0
    3.4030   -3.0950    0.0000 O   0  0  0  0  0  0  0  0  0  0  0  0
   10.6363    2.1222    0.0000 O   0  0  0  0  0  0  0  0  0  0  0  0
   10.2629   -0.8271    0.0000 O   0  0  0  0  0  0  0  0  0  0  0  0
    2.5369   -1.5950    0.0000 O   0  0  0  0  0  0  0  0  0  0  0  0
    7.7331    0.4050    0.0000 C   0  0  1  0  0  0  0  0  0  0  0  0
    7.7331    1.4050    0.0000 C   0  0  2  0  0  0  0  0  0  0  0  0
    8.6793    0.1003    0.0000 C   0  0  1  0  0  0  0  0  0  0  0  0
    8.6793    1.7097    0.0000 C   0  0  1  0  0  0  0  0  0  0  0  0
    9.2629    0.9050    0.0000 C   0  0  2  0  0  0  0  0  0  0  0  0
    6.8671   -0.0950    0.0000 C   0  0  1  0  0  0  0  0  0  0  0  0
    6.8671    1.9050    0.0000 C   0  0  0  0  0  0  0  0  0  0  0  0
    8.9900   -0.8503    0.0000 C   0  0  0  0  0  0  0  0  0  0  0  0
    6.0010    1.4050    0.0000 C   0  0  0  0  0  0  0  0  0  0  0  0
    6.0010   -1.5950    0.0000 C   0  0  2  0  0  0  0  0  0  0  0  0
    6.8671    2.9050    0.0000 C   0  0  0  0  0  0  0  0  0  0  0  0
    6.0010   -2.5950    0.0000 C   0  0  1  0  0  0  0  0  0  0  0  0
    5.1350   -3.0950    0.0000 C   0  0  2  0  0  0  0  0  0  0  0  0
    4.2690   -2.5950    0.0000 C   0  0  1  0  0  0  0  0  0  0  0  0
    4.2690   -1.5950    0.0000 C   0  0  1  0  0  0  0  0  0  0  0  0
    9.9685    2.8665    0.0000 C   0  0  0  0  0  0  0  0  0  0  0  0
   10.7629    0.0390    0.0000 C   0  0  0  0  0  0  0  0  0  0  0  0
    3.4030   -1.0950    0.0000 C   0  0  0  0  0  0  0  0  0  0  0  0
   10.2791    3.8170    0.0000 C   0  0  0  0  0  0  0  0  0  0  0  0
   11.7629    0.0390    0.0000 C   0  0  0  0  0  0  0  0  0  0  0  0
    6.0010    4.4050    0.0000 C   0  0  0  0  0  0  0  0  0  0  0  0
    7.8230   -0.4402    0.0000 H   0  0  0  0  0  0  0  0  0  0  0  0
    7.8230    2.2502    0.0000 H   0  0  0  0  0  0  0  0  0  0  0  0
    8.2418   -0.3391    0.0000 H   0  0  0  0  0  0  0  0  0  0  0  0
    8.2418    2.1491    0.0000 H   0  0  0  0  0  0  0  0  0  0  0  0
    9.5446    1.4573    0.0000 H   0  0  0  0  0  0  0  0  0  0  0  0
    7.4040   -0.4050    0.0000 H   0  0  0  0  0  0  0  0  0  0  0  0
    8.4006   -1.0429    0.0000 H   0  0  0  0  0  0  0  0  0  0  0  0
    9.1826   -1.4396    0.0000 H   0  0  0  0  0  0  0  0  0  0  0  0
    9.5793   -0.6576    0.0000 H   0  0  0  0  0  0  0  0  0  0  0  0
    5.4641    1.7150    0.0000 H   0  0  0  0  0  0  0  0  0  0  0  0
    6.0010   -0.9750    0.0000 H   0  0  0  0  0  0  0  0  0  0  0  0
    6.0010   -3.2150    0.0000 H   0  0  0  0  0  0  0  0  0  0  0  0
    4.5981   -3.4050    0.0000 H   0  0  0  0  0  0  0  0  0  0  0  0
    4.2690   -3.2150    0.0000 H   0  0  0  0  0  0  0  0  0  0  0  0
    4.2690   -0.9750    0.0000 H   0  0  0  0  0  0  0  0  0  0  0  0
    3.8015   -0.6201    0.0000 H   0  0  0  0  0  0  0  0  0  0  0  0
    3.0044   -0.6201    0.0000 H   0  0  0  0  0  0  0  0  0  0  0  0
    6.8671   -3.7150    0.0000 H   0  0  0  0  0  0  0  0  0  0  0  0
   10.8685    3.6244    0.0000 H   0  0  0  0  0  0  0  0  0  0  0  0
   10.4717    4.4063    0.0000 H   0  0  0  0  0  0  0  0  0  0  0  0
    9.6898    4.0096    0.0000 H   0  0  0  0  0  0  0  0  0  0  0  0
   11.7629   -0.5810    0.0000 H   0  0  0  0  0  0  0  0  0  0  0  0
   12.3829    0.0390    0.0000 H   0  0  0  0  0  0  0  0  0  0  0  0
   11.7629    0.6590    0.0000 H   0  0  0  0  0  0  0  0  0  0  0  0
    4.5981   -4.4050    0.0000 H   0  0  0  0  0  0  0  0  0  0  0  0
    3.4030   -3.7150    0.0000 H   0  0  0  0  0  0  0  0  0  0  0  0
    6.6210    4.4050    0.0000 H   0  0  0  0  0  0  0  0  0  0  0  0
    6.0010    5.0250    0.0000 H   0  0  0  0  0  0  0  0  0  0  0  0
    5.3810    4.4050    0.0000 H   0  0  0  0  0  0  0  0  0  0  0  0
    2.0000   -1.2850    0.0000 H   0  0  0  0  0  0  0  0  0  0  0  0
  1 19  1  0  0  0  0
  1 22  1  0  0  0  0
 17  2  1  6  0  0  0
  2 29  1  0  0  0  0
 18  3  1  6  0  0  0
  3 30  1  0  0  0  0
 19  4  1  6  0  0  0
 23  4  1  1  0  0  0
  5 23  1  0  0  0  0
  5 28  1  0  0  0  0
  6 24  1  0  0  0  0
  6 34  1  0  0  0  0
 25  7  1  6  0  0  0
  7 52  1  0  0  0  0
  8 24  2  0  0  0  0
 26  9  1  1  0  0  0
  9 59  1  0  0  0  0
 27 10  1  6  0  0  0
 10 60  1  0  0  0  0
 11 29  2  0  0  0  0
 12 30  2  0  0  0  0
 13 31  1  0  0  0  0
 13 64  1  0  0  0  0
 14 15  1  0  0  0  0
 14 16  1  0  0  0  0
 14 19  1  0  0  0  0
 14 35  1  6  0  0  0
 15 17  1  0  0  0  0
 15 20  1  0  0  0  0
 15 36  1  6  0  0  0
 16 18  1  0  0  0  0
 16 21  1  1  0  0  0
 16 37  1  0  0  0  0
 17 18  1  0  0  0  0
 17 38  1  0  0  0  0
 18 39  1  0  0  0  0
 19 40  1  0  0  0  0
 20 22  2  0  0  0  0
 20 24  1  0  0  0  0
 21 41  1  0  0  0  0
 21 42  1  0  0  0  0
 21 43  1  0  0  0  0
 22 44  1  0  0  0  0
 23 25  1  0  0  0  0
 23 45  1  0  0  0  0
 25 26  1  0  0  0  0
 25 46  1  0  0  0  0
 26 27  1  0  0  0  0
 26 47  1  0  0  0  0
 27 28  1  0  0  0  0
 27 48  1  0  0  0  0
 28 31  1  1  0  0  0
 28 49  1  0  0  0  0
 29 32  1  0  0  0  0
 30 33  1  0  0  0  0
 31 50  1  0  0  0  0
 31 51  1  0  0  0  0
 32 53  1  0  0  0  0
 32 54  1  0  0  0  0
 32 55  1  0  0  0  0
 33 56  1  0  0  0  0
 33 57  1  0  0  0  0
 33 58  1  0  0  0  0
 34 61  1  0  0  0  0
 34 62  1  0  0  0  0
 34 63  1  0  0  0  0
M  END
> <PUBCHEM_COMPOUND_CID>
158499

> <PUBCHEM_COMPOUND_CANONICALIZED>
1

> <PUBCHEM_CACTVS_COMPLEXITY>
813

> <PUBCHEM_CACTVS_HBOND_ACCEPTOR>
13

> <PUBCHEM_CACTVS_HBOND_DONOR>
4

> <PUBCHEM_CACTVS_ROTATABLE_BOND>
9

> <PUBCHEM_CACTVS_SUBSKEYS>
AAADceB4PAAAAAAAAAAAAAAAAAAAAYAAAAAkQAAAAAAAAEAAAAAAGgAACAAADRSwgAMCCAAABgCIAgDSCAAACAAgIAAAAAEAAEgRFBIAIQAiQAAFwAAHIIHK7PzOgAAAAAAAAAAAAAAAAAAAAYAADCAAAA==

> <PUBCHEM_IUPAC_OPENEYE_NAME>
methyl (1S,4aS,5S,6R,7S,7aR)-5,6-diacetoxy-7-methyl-1-[(2S,3R,4S,5S,6R)-3,4,5-trihydroxy-6-(hydroxymethyl)tetrahydropyran-2-yl]oxy-1,4a,5,6,7,7a-hexahydrocyclopenta[c]pyran-4-carboxylate

> <PUBCHEM_IUPAC_CAS_NAME>
(1S,4aS,5S,6R,7S,7aR)-5,6-diacetyloxy-7-methyl-1-[[(2S,3R,4S,5S,6R)-3,4,5-trihydroxy-6-(hydroxymethyl)-2-oxanyl]oxy]-1,4a,5,6,7,7a-hexahydrocyclopenta[c]pyran-4-carboxylic acid methyl ester

> <PUBCHEM_IUPAC_NAME_MARKUP>
methyl (1<I>S</I>,4<I>a</I><I>S</I>,5<I>S</I>,6<I>R</I>,7<I>S</I>,7<I>a</I><I>R</I>)-5,6-diacetyloxy-7-methyl-1-[(2<I>S</I>,3<I>R</I>,4<I>S</I>,5<I>S</I>,6<I>R</I>)-3,4,5-trihydroxy-6-(hydroxymethyl)oxan-2-yl]oxy-1,4<I>a</I>,5,6,7,7<I>a</I>-hexahydrocyclopenta[c]pyran-4-carboxylate

> <PUBCHEM_IUPAC_NAME>
methyl (1S,4aS,5S,6R,7S,7aR)-5,6-diacetyloxy-7-methyl-1-[(2S,3R,4S,5S,6R)-3,4,5-trihydroxy-6-(hydroxymethyl)oxan-2-yl]oxy-1,4a,5,6,7,7a-hexahydrocyclopenta[c]pyran-4-carboxylate

> <PUBCHEM_IUPAC_SYSTEMATIC_NAME>
methyl (1S,4aS,5S,6R,7S,7aR)-5,6-diacetyloxy-1-[(2S,3R,4S,5S,6R)-6-(hydroxymethyl)-3,4,5-tris(oxidanyl)oxan-2-yl]oxy-7-methyl-1,4a,5,6,7,7a-hexahydrocyclopenta[c]pyran-4-carboxylate

> <PUBCHEM_IUPAC_TRADITIONAL_NAME>
(1S,4aS,5S,6R,7S,7aR)-5,6-diacetoxy-7-methyl-1-[(2S,3R,4S,5S,6R)-3,4,5-trihydroxy-6-methylol-tetrahydropyran-2-yl]oxy-1,4a,5,6,7,7a-hexahydrocyclopenta[c]pyran-4-carboxylic acid methyl ester

> <PUBCHEM_IUPAC_INCHI>
InChI=1S/C21H30O13/c1-7-12-13(18(32-9(3)24)17(7)31-8(2)23)10(19(28)29-4)6-30-20(12)34-21-16(27)15(26)14(25)11(5-22)33-21/h6-7,11-18,20-22,25-27H,5H2,1-4H3/t7-,11+,12+,13+,14+,15-,16+,17+,18-,20-,21-/m0/s1

> <PUBCHEM_IUPAC_INCHIKEY>
LBSSFVCNVYMGJT-BRQHWSDLSA-N

> <PUBCHEM_XLOGP3_AA>
-1.2

> <PUBCHEM_EXACT_MASS>
490.16864101

> <PUBCHEM_MOLECULAR_FORMULA>
C21H30O13

> <PUBCHEM_MOLECULAR_WEIGHT>
490.5

> <PUBCHEM_OPENEYE_CAN_SMILES>
CC1C2C(C(C1OC(=O)C)OC(=O)C)C(=COC2OC3C(C(C(C(O3)CO)O)O)O)C(=O)OC

> <PUBCHEM_OPENEYE_ISO_SMILES>
C[C@H]1[C@@H]2[C@H]([C@@H]([C@@H]1OC(=O)C)OC(=O)C)C(=CO[C@H]2O[C@H]3[C@@H]([C@H]([C@@H]([C@H](O3)CO)O)O)O)C(=O)OC

> <PUBCHEM_CACTVS_TPSA>
188

> <PUBCHEM_MONOISOTOPIC_WEIGHT>
490.16864101

> <PUBCHEM_TOTAL_CHARGE>
0

> <PUBCHEM_HEAVY_ATOM_COUNT>
34

> <PUBCHEM_ATOM_DEF_STEREO_COUNT>
11

> <PUBCHEM_ATOM_UDEF_STEREO_COUNT>
0

> <PUBCHEM_BOND_DEF_STEREO_COUNT>
0

> <PUBCHEM_BOND_UDEF_STEREO_COUNT>
0

> <PUBCHEM_ISOTOPIC_ATOM_COUNT>
0

> <PUBCHEM_COMPONENT_COUNT>
1

> <PUBCHEM_CACTVS_TAUTO_COUNT>
1

> <PUBCHEM_COORDINATE_TYPE>
1
5
255

> <PUBCHEM_BONDANNOTATIONS>
27  10  6
14  35  6
15  36  6
16  21  5
17  2  6
28  31  5
18  3  6
19  4  6
23  4  5
25  7  6
26  9  5

$$$$
