 
  -OEChem-10192104232D

 79 80  0     1  0  0  0  0  0999 V2000
   15.8564    0.2500    0.0000 S   0  0  0  0  0  0  0  0  0  0  0  0
    5.4641    0.2500    0.0000 O   0  0  0  0  0  0  0  0  0  0  0  0
    4.5981    2.7500    0.0000 O   0  0  0  0  0  0  0  0  0  0  0  0
    6.3301   -0.2500    0.0000 O   0  0  0  0  0  0  0  0  0  0  0  0
    5.4641    1.2500    0.0000 O   0  0  0  0  0  0  0  0  0  0  0  0
   10.6603    0.2500    0.0000 O   0  0  0  0  0  0  0  0  0  0  0  0
    8.9282   -2.7500    0.0000 O   0  0  0  0  0  0  0  0  0  0  0  0
   11.5263   -0.2500    0.0000 O   0  0  0  0  0  0  0  0  0  0  0  0
   14.1244   -2.7500    0.0000 O   0  0  0  0  0  0  0  0  0  0  0  0
    3.7320    0.2500    0.0000 N   0  0  0  0  0  0  0  0  0  0  0  0
    5.4641   -1.7500    0.0000 N   0  0  0  0  0  0  0  0  0  0  0  0
    8.0622   -1.2500    0.0000 N   0  0  0  0  0  0  0  0  0  0  0  0
   10.6603   -1.7500    0.0000 N   0  0  0  0  0  0  0  0  0  0  0  0
   13.2583   -1.2500    0.0000 N   0  0  0  0  0  0  0  0  0  0  0  0
   15.8564   -1.7500    0.0000 N   0  0  0  0  0  0  0  0  0  0  0  0
    4.5981   -1.2500    0.0000 C   0  0  1  0  0  0  0  0  0  0  0  0
    3.7320   -1.7500    0.0000 C   0  0  0  0  0  0  0  0  0  0  0  0
    3.7320    1.2500    0.0000 C   0  0  1  0  0  0  0  0  0  0  0  0
    4.5981   -0.2500    0.0000 C   0  0  0  0  0  0  0  0  0  0  0  0
    2.8660    1.7500    0.0000 C   0  0  0  0  0  0  0  0  0  0  0  0
    3.7320   -2.7500    0.0000 C   0  0  0  0  0  0  0  0  0  0  0  0
    2.8660    2.7500    0.0000 C   0  0  0  0  0  0  0  0  0  0  0  0
    6.3301   -1.2500    0.0000 C   0  0  0  0  0  0  0  0  0  0  0  0
    4.5981    1.7500    0.0000 C   0  0  0  0  0  0  0  0  0  0  0  0
    7.1962   -1.7500    0.0000 C   0  0  0  0  0  0  0  0  0  0  0  0
    4.5981   -3.2500    0.0000 C   0  0  0  0  0  0  0  0  0  0  0  0
    2.8660   -3.2500    0.0000 C   0  0  0  0  0  0  0  0  0  0  0  0
    9.7942   -1.2500    0.0000 C   0  0  2  0  0  0  0  0  0  0  0  0
    3.7320    3.2500    0.0000 C   0  0  0  0  0  0  0  0  0  0  0  0
    2.0000    3.2500    0.0000 C   0  0  0  0  0  0  0  0  0  0  0  0
    8.9282   -1.7500    0.0000 C   0  0  0  0  0  0  0  0  0  0  0  0
    4.5981   -4.2500    0.0000 C   0  0  0  0  0  0  0  0  0  0  0  0
    2.8660   -4.2500    0.0000 C   0  0  0  0  0  0  0  0  0  0  0  0
    9.7942   -0.2500    0.0000 C   0  0  0  0  0  0  0  0  0  0  0  0
    3.7320   -4.7500    0.0000 C   0  0  0  0  0  0  0  0  0  0  0  0
    3.7320    4.2500    0.0000 C   0  0  0  0  0  0  0  0  0  0  0  0
    2.0000    4.2500    0.0000 C   0  0  0  0  0  0  0  0  0  0  0  0
    2.8660    4.7500    0.0000 C   0  0  0  0  0  0  0  0  0  0  0  0
   11.5263   -1.2500    0.0000 C   0  0  0  0  0  0  0  0  0  0  0  0
   12.3923   -1.7500    0.0000 C   0  0  0  0  0  0  0  0  0  0  0  0
   14.9904   -1.2500    0.0000 C   0  0  2  0  0  0  0  0  0  0  0  0
   14.1244   -1.7500    0.0000 C   0  0  0  0  0  0  0  0  0  0  0  0
   14.9904   -0.2500    0.0000 C   0  0  0  0  0  0  0  0  0  0  0  0
    4.5981   -1.8700    0.0000 H   0  0  0  0  0  0  0  0  0  0  0  0
    3.5200   -1.1674    0.0000 H   0  0  0  0  0  0  0  0  0  0  0  0
    3.1215   -1.8577    0.0000 H   0  0  0  0  0  0  0  0  0  0  0  0
    4.2690    0.9400    0.0000 H   0  0  0  0  0  0  0  0  0  0  0  0
    2.2554    1.8577    0.0000 H   0  0  0  0  0  0  0  0  0  0  0  0
    2.6540    1.1674    0.0000 H   0  0  0  0  0  0  0  0  0  0  0  0
    3.1951   -0.0600    0.0000 H   0  0  0  0  0  0  0  0  0  0  0  0
    5.4641   -2.3700    0.0000 H   0  0  0  0  0  0  0  0  0  0  0  0
    6.7976   -2.2250    0.0000 H   0  0  0  0  0  0  0  0  0  0  0  0
    7.5947   -2.2250    0.0000 H   0  0  0  0  0  0  0  0  0  0  0  0
    5.1350   -2.9400    0.0000 H   0  0  0  0  0  0  0  0  0  0  0  0
    2.3291   -2.9400    0.0000 H   0  0  0  0  0  0  0  0  0  0  0  0
    9.7942   -1.8700    0.0000 H   0  0  0  0  0  0  0  0  0  0  0  0
    8.0622   -0.6300    0.0000 H   0  0  0  0  0  0  0  0  0  0  0  0
    4.2690    2.9400    0.0000 H   0  0  0  0  0  0  0  0  0  0  0  0
    1.4631    2.9400    0.0000 H   0  0  0  0  0  0  0  0  0  0  0  0
    5.1350   -4.5600    0.0000 H   0  0  0  0  0  0  0  0  0  0  0  0
    2.3291   -4.5600    0.0000 H   0  0  0  0  0  0  0  0  0  0  0  0
    9.5822    0.3326    0.0000 H   0  0  0  0  0  0  0  0  0  0  0  0
    9.1836   -0.3577    0.0000 H   0  0  0  0  0  0  0  0  0  0  0  0
   10.6603   -2.3700    0.0000 H   0  0  0  0  0  0  0  0  0  0  0  0
    3.7320   -5.3700    0.0000 H   0  0  0  0  0  0  0  0  0  0  0  0
    4.2690    4.5600    0.0000 H   0  0  0  0  0  0  0  0  0  0  0  0
    1.4631    4.5600    0.0000 H   0  0  0  0  0  0  0  0  0  0  0  0
    2.8660    5.3700    0.0000 H   0  0  0  0  0  0  0  0  0  0  0  0
   11.9938   -2.2250    0.0000 H   0  0  0  0  0  0  0  0  0  0  0  0
   12.7908   -2.2250    0.0000 H   0  0  0  0  0  0  0  0  0  0  0  0
    5.1350    3.0600    0.0000 H   0  0  0  0  0  0  0  0  0  0  0  0
   15.5273   -0.9400    0.0000 H   0  0  0  0  0  0  0  0  0  0  0  0
   13.2583   -0.6300    0.0000 H   0  0  0  0  0  0  0  0  0  0  0  0
   10.6603    0.8700    0.0000 H   0  0  0  0  0  0  0  0  0  0  0  0
   14.7783    0.3326    0.0000 H   0  0  0  0  0  0  0  0  0  0  0  0
   14.3798   -0.3577    0.0000 H   0  0  0  0  0  0  0  0  0  0  0  0
   16.3933   -1.4400    0.0000 H   0  0  0  0  0  0  0  0  0  0  0  0
   15.8564   -2.3700    0.0000 H   0  0  0  0  0  0  0  0  0  0  0  0
   15.8564    0.8700    0.0000 H   0  0  0  0  0  0  0  0  0  0  0  0
  1 43  1  0  0  0  0
  1 79  1  0  0  0  0
  2 19  2  0  0  0  0
  3 24  1  0  0  0  0
  3 71  1  0  0  0  0
  4 23  2  0  0  0  0
  5 24  2  0  0  0  0
  6 34  1  0  0  0  0
  6 74  1  0  0  0  0
  7 31  2  0  0  0  0
  8 39  2  0  0  0  0
  9 42  2  0  0  0  0
 18 10  1  1  0  0  0
 10 19  1  0  0  0  0
 10 50  1  0  0  0  0
 16 11  1  1  0  0  0
 11 23  1  0  0  0  0
 11 51  1  0  0  0  0
 12 25  1  0  0  0  0
 12 31  1  0  0  0  0
 12 57  1  0  0  0  0
 28 13  1  6  0  0  0
 13 39  1  0  0  0  0
 13 64  1  0  0  0  0
 14 40  1  0  0  0  0
 14 42  1  0  0  0  0
 14 73  1  0  0  0  0
 41 15  1  6  0  0  0
 15 77  1  0  0  0  0
 15 78  1  0  0  0  0
 16 17  1  0  0  0  0
 16 19  1  0  0  0  0
 16 44  1  0  0  0  0
 17 21  1  0  0  0  0
 17 45  1  0  0  0  0
 17 46  1  0  0  0  0
 18 20  1  0  0  0  0
 18 24  1  0  0  0  0
 18 47  1  0  0  0  0
 20 22  1  0  0  0  0
 20 48  1  0  0  0  0
 20 49  1  0  0  0  0
 21 26  2  0  0  0  0
 21 27  1  0  0  0  0
 22 29  2  0  0  0  0
 22 30  1  0  0  0  0
 23 25  1  0  0  0  0
 25 52  1  0  0  0  0
 25 53  1  0  0  0  0
 26 32  1  0  0  0  0
 26 54  1  0  0  0  0
 27 33  2  0  0  0  0
 27 55  1  0  0  0  0
 28 31  1  0  0  0  0
 28 34  1  0  0  0  0
 28 56  1  0  0  0  0
 29 36  1  0  0  0  0
 29 58  1  0  0  0  0
 30 37  2  0  0  0  0
 30 59  1  0  0  0  0
 32 35  2  0  0  0  0
 32 60  1  0  0  0  0
 33 35  1  0  0  0  0
 33 61  1  0  0  0  0
 34 62  1  0  0  0  0
 34 63  1  0  0  0  0
 35 65  1  0  0  0  0
 36 38  2  0  0  0  0
 36 66  1  0  0  0  0
 37 38  1  0  0  0  0
 37 67  1  0  0  0  0
 38 68  1  0  0  0  0
 39 40  1  0  0  0  0
 40 69  1  0  0  0  0
 40 70  1  0  0  0  0
 41 42  1  0  0  0  0
 41 43  1  0  0  0  0
 41 72  1  0  0  0  0
 43 75  1  0  0  0  0
 43 76  1  0  0  0  0
M  END
> <PUBCHEM_COMPOUND_CID>
101409790

> <PUBCHEM_COMPOUND_CANONICALIZED>
1

> <PUBCHEM_CACTVS_COMPLEXITY>
958

> <PUBCHEM_CACTVS_HBOND_ACCEPTOR>
10

> <PUBCHEM_CACTVS_HBOND_DONOR>
9

> <PUBCHEM_CACTVS_ROTATABLE_BOND>
17

> <PUBCHEM_CACTVS_SUBSKEYS>
AAADcfB7vABAAAAAAAAAAAAAAAAAAAAAAAAwYAAAAAAAAAABQAAAHgQQCAAADCjl2AawCILAAgSIAiHSGAACAAAgAAAIiIGIAIgKcDaAkTGUYAAmtgCYiAeYyKCOAAAAAAAAAAAAAAAAAAAAAAAAAAAAAA==

> <PUBCHEM_IUPAC_OPENEYE_NAME>
(2S)-2-[[(2S)-2-[[2-[[(2S)-2-[[2-[[(2R)-2-amino-3-sulfanyl-propanoyl]amino]acetyl]amino]-3-hydroxy-propanoyl]amino]acetyl]amino]-3-phenyl-propanoyl]amino]-3-phenyl-propanoic acid

> <PUBCHEM_IUPAC_CAS_NAME>
(2S)-2-[[(2S)-2-[[2-[[(2S)-2-[[2-[[(2R)-2-amino-3-mercapto-1-oxopropyl]amino]-1-oxoethyl]amino]-3-hydroxy-1-oxopropyl]amino]-1-oxoethyl]amino]-1-oxo-3-phenylpropyl]amino]-3-phenylpropanoic acid

> <PUBCHEM_IUPAC_NAME_MARKUP>
(2<I>S</I>)-2-[[(2<I>S</I>)-2-[[2-[[(2<I>S</I>)-2-[[2-[[(2<I>R</I>)-2-amino-3-sulfanylpropanoyl]amino]acetyl]amino]-3-hydroxypropanoyl]amino]acetyl]amino]-3-phenylpropanoyl]amino]-3-phenylpropanoic acid

> <PUBCHEM_IUPAC_NAME>
(2S)-2-[[(2S)-2-[[2-[[(2S)-2-[[2-[[(2R)-2-amino-3-sulfanylpropanoyl]amino]acetyl]amino]-3-hydroxypropanoyl]amino]acetyl]amino]-3-phenylpropanoyl]amino]-3-phenylpropanoic acid

> <PUBCHEM_IUPAC_SYSTEMATIC_NAME>
(2S)-2-[[(2S)-2-[2-[[(2S)-2-[2-[[(2R)-2-azanyl-3-sulfanyl-propanoyl]amino]ethanoylamino]-3-oxidanyl-propanoyl]amino]ethanoylamino]-3-phenyl-propanoyl]amino]-3-phenyl-propanoic acid

> <PUBCHEM_IUPAC_TRADITIONAL_NAME>
(2S)-2-[[(2S)-2-[[2-[[(2S)-2-[[2-[[(2R)-2-amino-3-mercapto-propanoyl]amino]acetyl]amino]-3-hydroxy-propanoyl]amino]acetyl]amino]-3-phenyl-propanoyl]amino]-3-phenyl-propionic acid

> <PUBCHEM_IUPAC_INCHI>
InChI=1S/C28H36N6O8S/c29-19(16-43)25(38)30-13-24(37)33-22(15-35)26(39)31-14-23(36)32-20(11-17-7-3-1-4-8-17)27(40)34-21(28(41)42)12-18-9-5-2-6-10-18/h1-10,19-22,35,43H,11-16,29H2,(H,30,38)(H,31,39)(H,32,36)(H,33,37)(H,34,40)(H,41,42)/t19-,20-,21-,22-/m0/s1

> <PUBCHEM_IUPAC_INCHIKEY>
GXXOBUJTWQIUES-CMOCDZPBSA-N

> <PUBCHEM_XLOGP3>
-3.5

> <PUBCHEM_EXACT_MASS>
616.23153330

> <PUBCHEM_MOLECULAR_FORMULA>
C28H36N6O8S

> <PUBCHEM_MOLECULAR_WEIGHT>
616.7

> <PUBCHEM_OPENEYE_CAN_SMILES>
C1=CC=C(C=C1)CC(C(=O)NC(CC2=CC=CC=C2)C(=O)O)NC(=O)CNC(=O)C(CO)NC(=O)CNC(=O)C(CS)N

> <PUBCHEM_OPENEYE_ISO_SMILES>
C1=CC=C(C=C1)C[C@@H](C(=O)N[C@@H](CC2=CC=CC=C2)C(=O)O)NC(=O)CNC(=O)[C@H](CO)NC(=O)CNC(=O)[C@H](CS)N

> <PUBCHEM_CACTVS_TPSA>
230

> <PUBCHEM_MONOISOTOPIC_WEIGHT>
616.23153330

> <PUBCHEM_TOTAL_CHARGE>
0

> <PUBCHEM_HEAVY_ATOM_COUNT>
43

> <PUBCHEM_ATOM_DEF_STEREO_COUNT>
4

> <PUBCHEM_ATOM_UDEF_STEREO_COUNT>
0

> <PUBCHEM_BOND_DEF_STEREO_COUNT>
0

> <PUBCHEM_BOND_UDEF_STEREO_COUNT>
0

> <PUBCHEM_ISOTOPIC_ATOM_COUNT>
0

> <PUBCHEM_COMPONENT_COUNT>
1

> <PUBCHEM_CACTVS_TAUTO_COUNT>
-1

> <PUBCHEM_COORDINATE_TYPE>
1
5
255

> <PUBCHEM_BONDANNOTATIONS>
18  10  5
16  11  5
28  13  6
41  15  6
21  26  8
21  27  8
22  29  8
22  30  8
26  32  8
27  33  8
29  36  8
30  37  8
32  35  8
33  35  8
36  38  8
37  38  8

$$$$
