 
  -OEChem-10192104452D

 88 87  0     1  0  0  0  0  0999 V2000
    6.3301   -6.5670    0.0000 P   0  0  3  0  0  0  0  0  0  0  0  0
    9.7942   -4.5670    0.0000 O   0  0  0  0  0  0  0  0  0  0  0  0
    9.7942   -6.5670    0.0000 O   0  0  0  0  0  0  0  0  0  0  0  0
    8.9282   -3.0670    0.0000 O   0  0  0  0  0  0  0  0  0  0  0  0
    7.1962   -6.0670    0.0000 O   0  0  0  0  0  0  0  0  0  0  0  0
    5.4641   -7.0670    0.0000 O   0  0  0  0  0  0  0  0  0  0  0  0
   10.6603   -5.0670    0.0000 O   0  0  0  0  0  0  0  0  0  0  0  0
    5.8301   -5.7010    0.0000 O   0  0  0  0  0  0  0  0  0  0  0  0
   12.3923   -6.0670    0.0000 O   0  0  0  0  0  0  0  0  0  0  0  0
    6.8301   -7.4330    0.0000 O   0  0  0  0  0  0  0  0  0  0  0  0
    2.8660   -6.5670    0.0000 N   0  0  0  0  0  0  0  0  0  0  0  0
   13.2583    1.4330    0.0000 C   0  0  0  0  0  0  0  0  0  0  0  0
   13.2583    2.4330    0.0000 C   0  0  0  0  0  0  0  0  0  0  0  0
   12.3923    0.9330    0.0000 C   0  0  0  0  0  0  0  0  0  0  0  0
   14.1244    2.9330    0.0000 C   0  0  0  0  0  0  0  0  0  0  0  0
   12.3923   -0.0670    0.0000 C   0  0  0  0  0  0  0  0  0  0  0  0
   14.1244    3.9330    0.0000 C   0  0  0  0  0  0  0  0  0  0  0  0
   11.5263   -0.5670    0.0000 C   0  0  0  0  0  0  0  0  0  0  0  0
   14.9904    4.4330    0.0000 C   0  0  0  0  0  0  0  0  0  0  0  0
   11.5263   -1.5670    0.0000 C   0  0  0  0  0  0  0  0  0  0  0  0
   14.9904    5.4330    0.0000 C   0  0  0  0  0  0  0  0  0  0  0  0
   10.6603   -2.0670    0.0000 C   0  0  0  0  0  0  0  0  0  0  0  0
   15.8564    5.9330    0.0000 C   0  0  0  0  0  0  0  0  0  0  0  0
   10.6603   -3.0670    0.0000 C   0  0  0  0  0  0  0  0  0  0  0  0
   15.8564    6.9330    0.0000 C   0  0  0  0  0  0  0  0  0  0  0  0
   16.7224    7.4330    0.0000 C   0  0  0  0  0  0  0  0  0  0  0  0
    9.7942   -3.5670    0.0000 C   0  0  0  0  0  0  0  0  0  0  0  0
    8.9282   -6.0670    0.0000 C   0  0  3  0  0  0  0  0  0  0  0  0
    8.9282   -5.0670    0.0000 C   0  0  0  0  0  0  0  0  0  0  0  0
    8.0622   -6.5670    0.0000 C   0  0  0  0  0  0  0  0  0  0  0  0
   10.6603   -6.0670    0.0000 C   0  0  3  0  0  0  0  0  0  0  0  0
   11.5263   -6.5670    0.0000 C   0  0  0  0  0  0  0  0  0  0  0  0
    4.5981   -6.5670    0.0000 C   0  0  0  0  0  0  0  0  0  0  0  0
    3.7320   -7.0670    0.0000 C   0  0  0  0  0  0  0  0  0  0  0  0
    2.0000   -7.0670    0.0000 C   0  0  0  0  0  0  0  0  0  0  0  0
    2.8660   -5.5670    0.0000 C   0  0  0  0  0  0  0  0  0  0  0  0
   13.4704    0.8504    0.0000 H   0  0  0  0  0  0  0  0  0  0  0  0
   13.8689    1.5407    0.0000 H   0  0  0  0  0  0  0  0  0  0  0  0
   13.0463    3.0156    0.0000 H   0  0  0  0  0  0  0  0  0  0  0  0
   12.6477    2.3253    0.0000 H   0  0  0  0  0  0  0  0  0  0  0  0
   12.1803    1.5156    0.0000 H   0  0  0  0  0  0  0  0  0  0  0  0
   11.7817    0.8254    0.0000 H   0  0  0  0  0  0  0  0  0  0  0  0
   14.3364    2.3504    0.0000 H   0  0  0  0  0  0  0  0  0  0  0  0
   14.7349    3.0407    0.0000 H   0  0  0  0  0  0  0  0  0  0  0  0
   12.6044   -0.6496    0.0000 H   0  0  0  0  0  0  0  0  0  0  0  0
   13.0029    0.0407    0.0000 H   0  0  0  0  0  0  0  0  0  0  0  0
   13.9123    4.5156    0.0000 H   0  0  0  0  0  0  0  0  0  0  0  0
   13.5138    3.8254    0.0000 H   0  0  0  0  0  0  0  0  0  0  0  0
   11.3142    0.0156    0.0000 H   0  0  0  0  0  0  0  0  0  0  0  0
   10.9157   -0.6746    0.0000 H   0  0  0  0  0  0  0  0  0  0  0  0
   15.2024    3.8504    0.0000 H   0  0  0  0  0  0  0  0  0  0  0  0
   15.6010    4.5407    0.0000 H   0  0  0  0  0  0  0  0  0  0  0  0
   11.7383   -2.1496    0.0000 H   0  0  0  0  0  0  0  0  0  0  0  0
   12.1369   -1.4593    0.0000 H   0  0  0  0  0  0  0  0  0  0  0  0
   14.7783    6.0156    0.0000 H   0  0  0  0  0  0  0  0  0  0  0  0
   14.3798    5.3254    0.0000 H   0  0  0  0  0  0  0  0  0  0  0  0
   10.4482   -1.4844    0.0000 H   0  0  0  0  0  0  0  0  0  0  0  0
   10.0497   -2.1747    0.0000 H   0  0  0  0  0  0  0  0  0  0  0  0
   16.0685    5.3504    0.0000 H   0  0  0  0  0  0  0  0  0  0  0  0
   16.4670    6.0407    0.0000 H   0  0  0  0  0  0  0  0  0  0  0  0
   10.8723   -3.6496    0.0000 H   0  0  0  0  0  0  0  0  0  0  0  0
   11.2708   -2.9593    0.0000 H   0  0  0  0  0  0  0  0  0  0  0  0
   15.6444    7.5156    0.0000 H   0  0  0  0  0  0  0  0  0  0  0  0
   15.2458    6.8254    0.0000 H   0  0  0  0  0  0  0  0  0  0  0  0
   17.0324    6.8961    0.0000 H   0  0  0  0  0  0  0  0  0  0  0  0
   17.2594    7.7430    0.0000 H   0  0  0  0  0  0  0  0  0  0  0  0
   16.4124    7.9700    0.0000 H   0  0  0  0  0  0  0  0  0  0  0  0
    9.4651   -5.7570    0.0000 H   0  0  0  0  0  0  0  0  0  0  0  0
    8.7162   -4.4844    0.0000 H   0  0  0  0  0  0  0  0  0  0  0  0
    8.3176   -5.1746    0.0000 H   0  0  0  0  0  0  0  0  0  0  0  0
    7.6636   -7.0419    0.0000 H   0  0  0  0  0  0  0  0  0  0  0  0
    8.4607   -7.0419    0.0000 H   0  0  0  0  0  0  0  0  0  0  0  0
   11.1972   -5.7570    0.0000 H   0  0  0  0  0  0  0  0  0  0  0  0
   11.1278   -7.0419    0.0000 H   0  0  0  0  0  0  0  0  0  0  0  0
   11.9248   -7.0419    0.0000 H   0  0  0  0  0  0  0  0  0  0  0  0
    4.9966   -6.0920    0.0000 H   0  0  0  0  0  0  0  0  0  0  0  0
    4.1996   -6.0920    0.0000 H   0  0  0  0  0  0  0  0  0  0  0  0
    3.3335   -7.5419    0.0000 H   0  0  0  0  0  0  0  0  0  0  0  0
    4.1306   -7.5419    0.0000 H   0  0  0  0  0  0  0  0  0  0  0  0
   11.1972   -4.7570    0.0000 H   0  0  0  0  0  0  0  0  0  0  0  0
    6.1401   -5.1640    0.0000 H   0  0  0  0  0  0  0  0  0  0  0  0
    1.6900   -6.5300    0.0000 H   0  0  0  0  0  0  0  0  0  0  0  0
    1.4631   -7.3770    0.0000 H   0  0  0  0  0  0  0  0  0  0  0  0
    2.3100   -7.6039    0.0000 H   0  0  0  0  0  0  0  0  0  0  0  0
    3.4860   -5.5670    0.0000 H   0  0  0  0  0  0  0  0  0  0  0  0
    2.8660   -4.9470    0.0000 H   0  0  0  0  0  0  0  0  0  0  0  0
    2.2460   -5.5670    0.0000 H   0  0  0  0  0  0  0  0  0  0  0  0
   12.9292   -6.3770    0.0000 H   0  0  0  0  0  0  0  0  0  0  0  0
  1  5  1  0  0  0  0
  1  6  1  0  0  0  0
  1  8  1  0  0  0  0
  1 10  2  0  0  0  0
  2 27  1  0  0  0  0
  2 29  1  0  0  0  0
  3 28  1  0  0  0  0
  3 31  1  0  0  0  0
  4 27  2  0  0  0  0
  5 30  1  0  0  0  0
  6 33  1  0  0  0  0
  7 31  1  0  0  0  0
  7 80  1  0  0  0  0
  8 81  1  0  0  0  0
  9 32  1  0  0  0  0
  9 88  1  0  0  0  0
 11 34  1  0  0  0  0
 11 35  1  0  0  0  0
 11 36  1  0  0  0  0
 12 13  1  0  0  0  0
 12 14  1  0  0  0  0
 12 37  1  0  0  0  0
 12 38  1  0  0  0  0
 13 15  1  0  0  0  0
 13 39  1  0  0  0  0
 13 40  1  0  0  0  0
 14 16  1  0  0  0  0
 14 41  1  0  0  0  0
 14 42  1  0  0  0  0
 15 17  1  0  0  0  0
 15 43  1  0  0  0  0
 15 44  1  0  0  0  0
 16 18  1  0  0  0  0
 16 45  1  0  0  0  0
 16 46  1  0  0  0  0
 17 19  1  0  0  0  0
 17 47  1  0  0  0  0
 17 48  1  0  0  0  0
 18 20  1  0  0  0  0
 18 49  1  0  0  0  0
 18 50  1  0  0  0  0
 19 21  1  0  0  0  0
 19 51  1  0  0  0  0
 19 52  1  0  0  0  0
 20 22  1  0  0  0  0
 20 53  1  0  0  0  0
 20 54  1  0  0  0  0
 21 23  1  0  0  0  0
 21 55  1  0  0  0  0
 21 56  1  0  0  0  0
 22 24  1  0  0  0  0
 22 57  1  0  0  0  0
 22 58  1  0  0  0  0
 23 25  1  0  0  0  0
 23 59  1  0  0  0  0
 23 60  1  0  0  0  0
 24 27  1  0  0  0  0
 24 61  1  0  0  0  0
 24 62  1  0  0  0  0
 25 26  1  0  0  0  0
 25 63  1  0  0  0  0
 25 64  1  0  0  0  0
 26 65  1  0  0  0  0
 26 66  1  0  0  0  0
 26 67  1  0  0  0  0
 28 29  1  0  0  0  0
 28 30  1  0  0  0  0
 28 68  1  0  0  0  0
 29 69  1  0  0  0  0
 29 70  1  0  0  0  0
 30 71  1  0  0  0  0
 30 72  1  0  0  0  0
 31 32  1  0  0  0  0
 31 73  1  0  0  0  0
 32 74  1  0  0  0  0
 32 75  1  0  0  0  0
 33 34  1  0  0  0  0
 33 76  1  0  0  0  0
 33 77  1  0  0  0  0
 34 78  1  0  0  0  0
 34 79  1  0  0  0  0
 35 82  1  0  0  0  0
 35 83  1  0  0  0  0
 35 84  1  0  0  0  0
 36 85  1  0  0  0  0
 36 86  1  0  0  0  0
 36 87  1  0  0  0  0
M  END
> <PUBCHEM_COMPOUND_CID>
57694164

> <PUBCHEM_COMPOUND_CANONICALIZED>
1

> <PUBCHEM_CACTVS_COMPLEXITY>
566

> <PUBCHEM_CACTVS_HBOND_ACCEPTOR>
10

> <PUBCHEM_CACTVS_HBOND_DONOR>
3

> <PUBCHEM_CACTVS_ROTATABLE_BOND>
27

> <PUBCHEM_CACTVS_SUBSKEYS>
AAADcfB6PAIAAAAAAAAAAAAAAAAAAAAAAAAAAAAAAAAAAAAAAAAAHgAACCAACBTxgAcCCAMABxAIQACQCIAAAAAAAAAAAAEIAAATEBIAAAACAAAFAAAXAAGIyKCAAAAAAAAAAAAAAAAAAAAAAAAAAAAAAA==

> <PUBCHEM_IUPAC_OPENEYE_NAME>
[2-(1,2-dihydroxyethoxy)-3-[2-(dimethylamino)ethoxy-hydroxy-phosphoryl]oxy-propyl] hexadecanoate

> <PUBCHEM_IUPAC_CAS_NAME>
hexadecanoic acid [2-(1,2-dihydroxyethoxy)-3-[2-(dimethylamino)ethoxy-hydroxyphosphoryl]oxypropyl] ester

> <PUBCHEM_IUPAC_NAME_MARKUP>
[2-(1,2-dihydroxyethoxy)-3-[2-(dimethylamino)ethoxy-hydroxyphosphoryl]oxypropyl] hexadecanoate

> <PUBCHEM_IUPAC_NAME>
[2-(1,2-dihydroxyethoxy)-3-[2-(dimethylamino)ethoxy-hydroxyphosphoryl]oxypropyl] hexadecanoate

> <PUBCHEM_IUPAC_SYSTEMATIC_NAME>
[2-[1,2-bis(oxidanyl)ethoxy]-3-[2-(dimethylamino)ethoxy-oxidanyl-phosphoryl]oxy-propyl] hexadecanoate

> <PUBCHEM_IUPAC_TRADITIONAL_NAME>
palmitic acid [2-(1,2-dihydroxyethoxy)-3-[2-(dimethylamino)ethoxy-hydroxy-phosphoryl]oxy-propyl] ester

> <PUBCHEM_IUPAC_INCHI>
InChI=1S/C25H52NO9P/c1-4-5-6-7-8-9-10-11-12-13-14-15-16-17-24(28)32-21-23(35-25(29)20-27)22-34-36(30,31)33-19-18-26(2)3/h23,25,27,29H,4-22H2,1-3H3,(H,30,31)

> <PUBCHEM_IUPAC_INCHIKEY>
GZQWQHICDWCGFJ-UHFFFAOYSA-N

> <PUBCHEM_XLOGP3_AA>
2.7

> <PUBCHEM_EXACT_MASS>
541.33796923

> <PUBCHEM_MOLECULAR_FORMULA>
C25H52NO9P

> <PUBCHEM_MOLECULAR_WEIGHT>
541.7

> <PUBCHEM_OPENEYE_CAN_SMILES>
CCCCCCCCCCCCCCCC(=O)OCC(COP(=O)(O)OCCN(C)C)OC(CO)O

> <PUBCHEM_OPENEYE_ISO_SMILES>
CCCCCCCCCCCCCCCC(=O)OCC(COP(=O)(O)OCCN(C)C)OC(CO)O

> <PUBCHEM_CACTVS_TPSA>
135

> <PUBCHEM_MONOISOTOPIC_WEIGHT>
541.33796923

> <PUBCHEM_TOTAL_CHARGE>
0

> <PUBCHEM_HEAVY_ATOM_COUNT>
36

> <PUBCHEM_ATOM_DEF_STEREO_COUNT>
0

> <PUBCHEM_ATOM_UDEF_STEREO_COUNT>
2

> <PUBCHEM_BOND_DEF_STEREO_COUNT>
0

> <PUBCHEM_BOND_UDEF_STEREO_COUNT>
0

> <PUBCHEM_ISOTOPIC_ATOM_COUNT>
0

> <PUBCHEM_COMPONENT_COUNT>
1

> <PUBCHEM_CACTVS_TAUTO_COUNT>
-1

> <PUBCHEM_COORDINATE_TYPE>
1
5
255

> <PUBCHEM_BONDANNOTATIONS>
28  29  3
31  7  3

$$$$
