 
  -OEChem-10192103302D

 68 71  0     1  0  0  0  0  0999 V2000
    6.8671   -1.2500    0.0000 O   0  0  0  0  0  0  0  0  0  0  0  0
    6.8671    1.7500    0.0000 O   0  0  0  0  0  0  0  0  0  0  0  0
    5.1350   -1.2500    0.0000 O   0  0  0  0  0  0  0  0  0  0  0  0
    6.8671   -3.2500    0.0000 O   0  0  0  0  0  0  0  0  0  0  0  0
    5.1350   -4.2500    0.0000 O   0  0  0  0  0  0  0  0  0  0  0  0
    3.4030   -3.2500    0.0000 O   0  0  0  0  0  0  0  0  0  0  0  0
    3.4030   -0.2500    0.0000 O   0  0  0  0  0  0  0  0  0  0  0  0
    4.2690    4.2500    0.0000 O   0  0  0  0  0  0  0  0  0  0  0  0
    2.5369    3.2500    0.0000 O   0  0  0  0  0  0  0  0  0  0  0  0
   12.9292    1.2500    0.0000 O   0  0  0  0  0  0  0  0  0  0  0  0
   12.9292    3.2500    0.0000 O   0  0  0  0  0  0  0  0  0  0  0  0
    6.8671   -0.2500    0.0000 C   0  0  3  0  0  0  0  0  0  0  0  0
    7.7331    0.2500    0.0000 C   0  0  0  0  0  0  0  0  0  0  0  0
    7.7331    1.2500    0.0000 C   0  0  3  0  0  0  0  0  0  0  0  0
    6.0010    0.2500    0.0000 C   0  0  0  0  0  0  0  0  0  0  0  0
    6.0010    1.2500    0.0000 C   0  0  3  0  0  0  0  0  0  0  0  0
    6.0010   -1.7500    0.0000 C   0  0  2  0  0  0  0  0  0  0  0  0
    6.0010   -2.7500    0.0000 C   0  0  1  0  0  0  0  0  0  0  0  0
    5.1350   -3.2500    0.0000 C   0  0  2  0  0  0  0  0  0  0  0  0
    4.2690   -2.7500    0.0000 C   0  0  1  0  0  0  0  0  0  0  0  0
    4.2690   -1.7500    0.0000 C   0  0  1  0  0  0  0  0  0  0  0  0
    8.5991    1.7500    0.0000 C   0  0  0  0  0  0  0  0  0  0  0  0
    5.1350    1.7500    0.0000 C   0  0  0  0  0  0  0  0  0  0  0  0
    9.4651    1.2500    0.0000 C   0  0  0  0  0  0  0  0  0  0  0  0
    3.4030   -1.2500    0.0000 C   0  0  0  0  0  0  0  0  0  0  0  0
    5.1350    2.7500    0.0000 C   0  0  0  0  0  0  0  0  0  0  0  0
    4.2690    1.2500    0.0000 C   0  0  0  0  0  0  0  0  0  0  0  0
   10.3312    1.7500    0.0000 C   0  0  0  0  0  0  0  0  0  0  0  0
    4.2690    3.2500    0.0000 C   0  0  0  0  0  0  0  0  0  0  0  0
    3.4030    1.7500    0.0000 C   0  0  0  0  0  0  0  0  0  0  0  0
   11.1972    1.2500    0.0000 C   0  0  0  0  0  0  0  0  0  0  0  0
   10.3312    2.7500    0.0000 C   0  0  0  0  0  0  0  0  0  0  0  0
    3.4030    2.7500    0.0000 C   0  0  0  0  0  0  0  0  0  0  0  0
   12.0632    1.7500    0.0000 C   0  0  0  0  0  0  0  0  0  0  0  0
   11.1972    3.2500    0.0000 C   0  0  0  0  0  0  0  0  0  0  0  0
   12.0632    2.7500    0.0000 C   0  0  0  0  0  0  0  0  0  0  0  0
    7.4040   -0.5600    0.0000 H   0  0  0  0  0  0  0  0  0  0  0  0
    7.9451   -0.3326    0.0000 H   0  0  0  0  0  0  0  0  0  0  0  0
    8.3437    0.3577    0.0000 H   0  0  0  0  0  0  0  0  0  0  0  0
    7.7331    1.8700    0.0000 H   0  0  0  0  0  0  0  0  0  0  0  0
    5.3905    0.3577    0.0000 H   0  0  0  0  0  0  0  0  0  0  0  0
    5.7890   -0.3326    0.0000 H   0  0  0  0  0  0  0  0  0  0  0  0
    5.4641    0.9400    0.0000 H   0  0  0  0  0  0  0  0  0  0  0  0
    6.0010   -1.1300    0.0000 H   0  0  0  0  0  0  0  0  0  0  0  0
    6.0010   -3.3700    0.0000 H   0  0  0  0  0  0  0  0  0  0  0  0
    4.5981   -3.5600    0.0000 H   0  0  0  0  0  0  0  0  0  0  0  0
    4.2690   -3.3700    0.0000 H   0  0  0  0  0  0  0  0  0  0  0  0
    4.2690   -1.1300    0.0000 H   0  0  0  0  0  0  0  0  0  0  0  0
    8.9976    2.2250    0.0000 H   0  0  0  0  0  0  0  0  0  0  0  0
    8.2006    2.2250    0.0000 H   0  0  0  0  0  0  0  0  0  0  0  0
    9.0666    0.7751    0.0000 H   0  0  0  0  0  0  0  0  0  0  0  0
    9.8637    0.7751    0.0000 H   0  0  0  0  0  0  0  0  0  0  0  0
    2.7924   -1.1423    0.0000 H   0  0  0  0  0  0  0  0  0  0  0  0
    3.1909   -1.8326    0.0000 H   0  0  0  0  0  0  0  0  0  0  0  0
    7.4040   -2.9400    0.0000 H   0  0  0  0  0  0  0  0  0  0  0  0
    4.5981   -4.5600    0.0000 H   0  0  0  0  0  0  0  0  0  0  0  0
    2.8660   -2.9400    0.0000 H   0  0  0  0  0  0  0  0  0  0  0  0
    5.6720    3.0600    0.0000 H   0  0  0  0  0  0  0  0  0  0  0  0
    4.2690    0.6300    0.0000 H   0  0  0  0  0  0  0  0  0  0  0  0
    2.8660    1.4400    0.0000 H   0  0  0  0  0  0  0  0  0  0  0  0
    2.8660    0.0600    0.0000 H   0  0  0  0  0  0  0  0  0  0  0  0
   11.1972    0.6300    0.0000 H   0  0  0  0  0  0  0  0  0  0  0  0
    9.7942    3.0600    0.0000 H   0  0  0  0  0  0  0  0  0  0  0  0
   11.1972    3.8700    0.0000 H   0  0  0  0  0  0  0  0  0  0  0  0
    4.8059    4.5600    0.0000 H   0  0  0  0  0  0  0  0  0  0  0  0
    2.0000    2.9400    0.0000 H   0  0  0  0  0  0  0  0  0  0  0  0
   12.9292    0.6300    0.0000 H   0  0  0  0  0  0  0  0  0  0  0  0
   12.9292    3.8700    0.0000 H   0  0  0  0  0  0  0  0  0  0  0  0
  1 12  1  0  0  0  0
 17  1  1  1  0  0  0
  2 14  1  0  0  0  0
  2 16  1  0  0  0  0
  3 17  1  0  0  0  0
  3 21  1  0  0  0  0
 18  4  1  6  0  0  0
  4 55  1  0  0  0  0
 19  5  1  1  0  0  0
  5 56  1  0  0  0  0
 20  6  1  6  0  0  0
  6 57  1  0  0  0  0
  7 25  1  0  0  0  0
  7 61  1  0  0  0  0
  8 29  1  0  0  0  0
  8 65  1  0  0  0  0
  9 33  1  0  0  0  0
  9 66  1  0  0  0  0
 10 34  1  0  0  0  0
 10 67  1  0  0  0  0
 11 36  1  0  0  0  0
 11 68  1  0  0  0  0
 12 13  1  0  0  0  0
 12 15  1  0  0  0  0
 12 37  1  0  0  0  0
 13 14  1  0  0  0  0
 13 38  1  0  0  0  0
 13 39  1  0  0  0  0
 14 22  1  0  0  0  0
 14 40  1  0  0  0  0
 15 16  1  0  0  0  0
 15 41  1  0  0  0  0
 15 42  1  0  0  0  0
 16 23  1  0  0  0  0
 16 43  1  0  0  0  0
 17 18  1  0  0  0  0
 17 44  1  0  0  0  0
 18 19  1  0  0  0  0
 18 45  1  0  0  0  0
 19 20  1  0  0  0  0
 19 46  1  0  0  0  0
 20 21  1  0  0  0  0
 20 47  1  0  0  0  0
 21 25  1  1  0  0  0
 21 48  1  0  0  0  0
 22 24  1  0  0  0  0
 22 49  1  0  0  0  0
 22 50  1  0  0  0  0
 23 26  2  0  0  0  0
 23 27  1  0  0  0  0
 24 28  1  0  0  0  0
 24 51  1  0  0  0  0
 24 52  1  0  0  0  0
 25 53  1  0  0  0  0
 25 54  1  0  0  0  0
 26 29  1  0  0  0  0
 26 58  1  0  0  0  0
 27 30  2  0  0  0  0
 27 59  1  0  0  0  0
 28 31  2  0  0  0  0
 28 32  1  0  0  0  0
 29 33  2  0  0  0  0
 30 33  1  0  0  0  0
 30 60  1  0  0  0  0
 31 34  1  0  0  0  0
 31 62  1  0  0  0  0
 32 35  2  0  0  0  0
 32 63  1  0  0  0  0
 34 36  2  0  0  0  0
 35 36  1  0  0  0  0
 35 64  1  0  0  0  0
M  END
> <PUBCHEM_COMPOUND_CID>
71533359

> <PUBCHEM_COMPOUND_CANONICALIZED>
1

> <PUBCHEM_CACTVS_COMPLEXITY>
682

> <PUBCHEM_CACTVS_HBOND_ACCEPTOR>
11

> <PUBCHEM_CACTVS_HBOND_DONOR>
8

> <PUBCHEM_CACTVS_ROTATABLE_BOND>
7

> <PUBCHEM_CACTVS_SUBSKEYS>
AAADcfB4PAAAAAAAAAAAAAAAAAAAAAAAAAA0aIEAAAAAAAABQAAAGgAACAAADBSwmAMwDoAABgCAAiBCAAACAAAgIAAIiAAGiIgZNiKCMRqicAElwBEPuAfA4PwOIAABAAAAQABAAAIAAACAAAAAAAAAAA==

> <PUBCHEM_IUPAC_OPENEYE_NAME>
(2R,3R,4S,5S,6R)-2-[2-(3,4-dihydroxyphenyl)-6-[2-(3,4-dihydroxyphenyl)ethyl]tetrahydropyran-4-yl]oxy-6-(hydroxymethyl)tetrahydropyran-3,4,5-triol

> <PUBCHEM_IUPAC_CAS_NAME>
(2R,3R,4S,5S,6R)-2-[[2-(3,4-dihydroxyphenyl)-6-[2-(3,4-dihydroxyphenyl)ethyl]-4-oxanyl]oxy]-6-(hydroxymethyl)oxane-3,4,5-triol

> <PUBCHEM_IUPAC_NAME_MARKUP>
(2<I>R</I>,3<I>R</I>,4<I>S</I>,5<I>S</I>,6<I>R</I>)-2-[2-(3,4-dihydroxyphenyl)-6-[2-(3,4-dihydroxyphenyl)ethyl]oxan-4-yl]oxy-6-(hydroxymethyl)oxane-3,4,5-triol

> <PUBCHEM_IUPAC_NAME>
(2R,3R,4S,5S,6R)-2-[2-(3,4-dihydroxyphenyl)-6-[2-(3,4-dihydroxyphenyl)ethyl]oxan-4-yl]oxy-6-(hydroxymethyl)oxane-3,4,5-triol

> <PUBCHEM_IUPAC_SYSTEMATIC_NAME>
(2R,3R,4S,5S,6R)-2-[2-[3,4-bis(oxidanyl)phenyl]-6-[2-[3,4-bis(oxidanyl)phenyl]ethyl]oxan-4-yl]oxy-6-(hydroxymethyl)oxane-3,4,5-triol

> <PUBCHEM_IUPAC_TRADITIONAL_NAME>
(2R,3R,4S,5S,6R)-2-[2-(3,4-dihydroxyphenyl)-6-[2-(3,4-dihydroxyphenyl)ethyl]tetrahydropyran-4-yl]oxy-6-methylol-tetrahydropyran-3,4,5-triol

> <PUBCHEM_IUPAC_INCHI>
InChI=1S/C25H32O11/c26-11-21-22(31)23(32)24(33)25(36-21)35-15-9-14(4-1-12-2-5-16(27)18(29)7-12)34-20(10-15)13-3-6-17(28)19(30)8-13/h2-3,5-8,14-15,20-33H,1,4,9-11H2/t14?,15?,20?,21-,22-,23+,24-,25-/m1/s1

> <PUBCHEM_IUPAC_INCHIKEY>
KNGLPVKCHBEQMT-HKACZLHLSA-N

> <PUBCHEM_XLOGP3_AA>
0.8

> <PUBCHEM_EXACT_MASS>
508.19446183

> <PUBCHEM_MOLECULAR_FORMULA>
C25H32O11

> <PUBCHEM_MOLECULAR_WEIGHT>
508.5

> <PUBCHEM_OPENEYE_CAN_SMILES>
C1C(CC(OC1CCC2=CC(=C(C=C2)O)O)C3=CC(=C(C=C3)O)O)OC4C(C(C(C(O4)CO)O)O)O

> <PUBCHEM_OPENEYE_ISO_SMILES>
C1C(CC(OC1CCC2=CC(=C(C=C2)O)O)C3=CC(=C(C=C3)O)O)O[C@H]4[C@@H]([C@H]([C@@H]([C@H](O4)CO)O)O)O

> <PUBCHEM_CACTVS_TPSA>
190

> <PUBCHEM_MONOISOTOPIC_WEIGHT>
508.19446183

> <PUBCHEM_TOTAL_CHARGE>
0

> <PUBCHEM_HEAVY_ATOM_COUNT>
36

> <PUBCHEM_ATOM_DEF_STEREO_COUNT>
5

> <PUBCHEM_ATOM_UDEF_STEREO_COUNT>
3

> <PUBCHEM_BOND_DEF_STEREO_COUNT>
0

> <PUBCHEM_BOND_UDEF_STEREO_COUNT>
0

> <PUBCHEM_ISOTOPIC_ATOM_COUNT>
0

> <PUBCHEM_COMPONENT_COUNT>
1

> <PUBCHEM_CACTVS_TAUTO_COUNT>
-1

> <PUBCHEM_COORDINATE_TYPE>
1
5
255

> <PUBCHEM_BONDANNOTATIONS>
12  1  3
17  1  5
14  22  3
16  23  3
21  25  5
23  26  8
23  27  8
26  29  8
27  30  8
28  31  8
28  32  8
29  33  8
30  33  8
31  34  8
32  35  8
34  36  8
35  36  8
18  4  6
19  5  5
20  6  6

$$$$
