 
  -OEChem-10192103322D

 21 22  0     1  0  0  0  0  0999 V2000
    6.0310   -0.5000    0.0000 S   0  0  3  0  0  0  0  0  0  0  0  0
    4.2514   -0.4067    0.0000 S   0  0  0  0  0  0  0  0  0  0  0  0
    6.0310   -1.5000    0.0000 O   0  0  0  0  0  0  0  0  0  0  0  0
    7.7631   -1.5000    0.0000 O   0  5  0  0  0  0  0  0  0  0  0  0
    2.0000    1.0409    0.0000 O   0  5  0  0  0  0  0  0  0  0  0  0
    2.1810   -0.6817    0.0000 O   0  0  0  0  0  0  0  0  0  0  0  0
    7.7631   -0.5000    0.0000 N   0  3  0  0  0  0  0  0  0  0  0  0
    5.0604    0.9945    0.0000 N   0  0  0  0  0  0  0  0  0  0  0  0
    7.7631    1.5000    0.0000 N   0  0  0  0  0  0  0  0  0  0  0  0
    2.5878    0.2319    0.0000 N   0  3  0  0  0  0  0  0  0  0  0  0
    6.8970   -0.0000    0.0000 C   0  0  0  0  0  0  0  0  0  0  0  0
    5.1650   -0.0000    0.0000 C   0  0  0  0  0  0  0  0  0  0  0  0
    3.5823    0.3364    0.0000 C   0  0  0  0  0  0  0  0  0  0  0  0
    6.8970    1.0000    0.0000 C   0  0  0  0  0  0  0  0  0  0  0  0
    4.0823    1.2024    0.0000 C   0  0  0  0  0  0  0  0  0  0  0  0
    8.6291    0.0000    0.0000 C   0  0  0  0  0  0  0  0  0  0  0  0
    8.6291    1.0000    0.0000 C   0  0  0  0  0  0  0  0  0  0  0  0
    6.3601    1.3100    0.0000 H   0  0  0  0  0  0  0  0  0  0  0  0
    3.8301    1.7688    0.0000 H   0  0  0  0  0  0  0  0  0  0  0  0
    9.1660   -0.3100    0.0000 H   0  0  0  0  0  0  0  0  0  0  0  0
    9.1660    1.3100    0.0000 H   0  0  0  0  0  0  0  0  0  0  0  0
  1  3  2  0  0  0  0
  1 11  1  0  0  0  0
  1 12  1  0  0  0  0
  2 12  1  0  0  0  0
  2 13  1  0  0  0  0
  4  7  1  0  0  0  0
  5 10  1  0  0  0  0
  6 10  2  0  0  0  0
  7 11  2  0  0  0  0
  7 16  1  0  0  0  0
  8 12  2  0  0  0  0
  8 15  1  0  0  0  0
  9 14  2  0  0  0  0
  9 17  1  0  0  0  0
 10 13  1  0  0  0  0
 11 14  1  0  0  0  0
 13 15  2  0  0  0  0
 14 18  1  0  0  0  0
 15 19  1  0  0  0  0
 16 17  2  0  0  0  0
 16 20  1  0  0  0  0
 17 21  1  0  0  0  0
M  CHG  4   4  -1   5  -1   7   1  10   1
M  END
> <PUBCHEM_COMPOUND_CID>
54387319

> <PUBCHEM_COMPOUND_CANONICALIZED>
1

> <PUBCHEM_CACTVS_COMPLEXITY>
326

> <PUBCHEM_CACTVS_HBOND_ACCEPTOR>
8

> <PUBCHEM_CACTVS_HBOND_DONOR>
0

> <PUBCHEM_CACTVS_ROTATABLE_BOND>
2

> <PUBCHEM_CACTVS_SUBSKEYS>
AAADcYBjuABgAAAAAAAAAAAAAAAAAWAAAAAsAAAAAAAAAAAB4AAAHAQEAAAAAADBQgQsgRIYUAqlABAnR0BI8aRRGjhoQAwYMAIAQEAAAAAQAAAAAICAAAAAAAAAAAAAAAAAAAAAAAAAAAAAAAAAAAAAAA==

> <PUBCHEM_IUPAC_OPENEYE_NAME>
5-nitro-2-(1-oxidopyrazin-1-ium-2-yl)sulfinyl-thiazole

> <PUBCHEM_IUPAC_CAS_NAME>
5-nitro-2-[(1-oxido-2-pyrazin-1-iumyl)sulfinyl]thiazole

> <PUBCHEM_IUPAC_NAME_MARKUP>
5-nitro-2-(1-oxidopyrazin-1-ium-2-yl)sulfinyl-1,3-thiazole

> <PUBCHEM_IUPAC_NAME>
5-nitro-2-(1-oxidopyrazin-1-ium-2-yl)sulfinyl-1,3-thiazole

> <PUBCHEM_IUPAC_SYSTEMATIC_NAME>
5-nitro-2-(1-oxidanidylpyrazin-1-ium-2-yl)sulfinyl-1,3-thiazole

> <PUBCHEM_IUPAC_TRADITIONAL_NAME>
5-nitro-2-(1-oxidopyrazin-1-ium-2-yl)sulfinyl-thiazole

> <PUBCHEM_IUPAC_INCHI>
InChI=1S/C7H4N4O4S2/c12-10-2-1-8-4-6(10)17(15)7-9-3-5(16-7)11(13)14/h1-4H

> <PUBCHEM_IUPAC_INCHIKEY>
VEDKQHBKRNWITC-UHFFFAOYSA-N

> <PUBCHEM_XLOGP3_AA>
-0.6

> <PUBCHEM_EXACT_MASS>
271.96739697

> <PUBCHEM_MOLECULAR_FORMULA>
C7H4N4O4S2

> <PUBCHEM_MOLECULAR_WEIGHT>
272.3

> <PUBCHEM_OPENEYE_CAN_SMILES>
C1=C[N+](=C(C=N1)S(=O)C2=NC=C(S2)[N+](=O)[O-])[O-]

> <PUBCHEM_OPENEYE_ISO_SMILES>
C1=C[N+](=C(C=N1)S(=O)C2=NC=C(S2)[N+](=O)[O-])[O-]

> <PUBCHEM_CACTVS_TPSA>
162

> <PUBCHEM_MONOISOTOPIC_WEIGHT>
271.96739697

> <PUBCHEM_TOTAL_CHARGE>
0

> <PUBCHEM_HEAVY_ATOM_COUNT>
17

> <PUBCHEM_ATOM_DEF_STEREO_COUNT>
0

> <PUBCHEM_ATOM_UDEF_STEREO_COUNT>
1

> <PUBCHEM_BOND_DEF_STEREO_COUNT>
0

> <PUBCHEM_BOND_UDEF_STEREO_COUNT>
0

> <PUBCHEM_ISOTOPIC_ATOM_COUNT>
0

> <PUBCHEM_COMPONENT_COUNT>
1

> <PUBCHEM_CACTVS_TAUTO_COUNT>
-1

> <PUBCHEM_COORDINATE_TYPE>
1
5
255

> <PUBCHEM_BONDANNOTATIONS>
1  11  3
11  14  8
13  15  8
16  17  8
2  12  8
2  13  8
7  11  8
7  16  8
8  12  8
8  15  8
9  14  8
9  17  8

$$$$
