 
  -OEChem-10192103312D

 30 29  0     0  0  0  0  0  0999 V2000
    3.7320   -0.0950    0.0000 O   0  0  0  0  0  0  0  0  0  0  0  0
    7.1962   -0.0950    0.0000 O   0  0  0  0  0  0  0  0  0  0  0  0
    5.4641   -1.0950    0.0000 O   0  0  0  0  0  0  0  0  0  0  0  0
    4.5981    1.4050    0.0000 O   0  0  0  0  0  0  0  0  0  0  0  0
    6.3301    1.4050    0.0000 O   0  0  0  0  0  0  0  0  0  0  0  0
    2.8660    0.4050    0.0000 C   0  0  0  0  0  0  0  0  0  0  0  0
    8.0622    0.4050    0.0000 C   0  0  0  0  0  0  0  0  0  0  0  0
    5.4641   -0.0950    0.0000 C   0  0  0  0  0  0  0  0  0  0  0  0
    2.0000   -0.0950    0.0000 C   0  0  0  0  0  0  0  0  0  0  0  0
    2.8660    1.4050    0.0000 C   0  0  0  0  0  0  0  0  0  0  0  0
    8.9282   -0.0950    0.0000 C   0  0  0  0  0  0  0  0  0  0  0  0
    8.0622    1.4050    0.0000 C   0  0  0  0  0  0  0  0  0  0  0  0
    4.5981    0.4050    0.0000 C   0  0  0  0  0  0  0  0  0  0  0  0
    6.3301    0.4050    0.0000 C   0  0  0  0  0  0  0  0  0  0  0  0
    2.8660   -0.2150    0.0000 H   0  0  0  0  0  0  0  0  0  0  0  0
    8.0622   -0.2150    0.0000 H   0  0  0  0  0  0  0  0  0  0  0  0
    6.0010   -0.4050    0.0000 H   0  0  0  0  0  0  0  0  0  0  0  0
    1.6900    0.4419    0.0000 H   0  0  0  0  0  0  0  0  0  0  0  0
    1.4631   -0.4050    0.0000 H   0  0  0  0  0  0  0  0  0  0  0  0
    2.3100   -0.6319    0.0000 H   0  0  0  0  0  0  0  0  0  0  0  0
    3.4860    1.4050    0.0000 H   0  0  0  0  0  0  0  0  0  0  0  0
    2.8660    2.0250    0.0000 H   0  0  0  0  0  0  0  0  0  0  0  0
    2.2460    1.4050    0.0000 H   0  0  0  0  0  0  0  0  0  0  0  0
    8.6182   -0.6319    0.0000 H   0  0  0  0  0  0  0  0  0  0  0  0
    9.4651   -0.4050    0.0000 H   0  0  0  0  0  0  0  0  0  0  0  0
    9.2382    0.4419    0.0000 H   0  0  0  0  0  0  0  0  0  0  0  0
    8.6822    1.4050    0.0000 H   0  0  0  0  0  0  0  0  0  0  0  0
    8.0622    2.0250    0.0000 H   0  0  0  0  0  0  0  0  0  0  0  0
    7.4422    1.4050    0.0000 H   0  0  0  0  0  0  0  0  0  0  0  0
    4.9272   -1.4050    0.0000 H   0  0  0  0  0  0  0  0  0  0  0  0
  1  6  1  0  0  0  0
  1 13  1  0  0  0  0
  2  7  1  0  0  0  0
  2 14  1  0  0  0  0
  3  8  1  0  0  0  0
  3 30  1  0  0  0  0
  4 13  2  0  0  0  0
  5 14  2  0  0  0  0
  6  9  1  0  0  0  0
  6 10  1  0  0  0  0
  6 15  1  0  0  0  0
  7 11  1  0  0  0  0
  7 12  1  0  0  0  0
  7 16  1  0  0  0  0
  8 13  1  0  0  0  0
  8 14  1  0  0  0  0
  8 17  1  0  0  0  0
  9 18  1  0  0  0  0
  9 19  1  0  0  0  0
  9 20  1  0  0  0  0
 10 21  1  0  0  0  0
 10 22  1  0  0  0  0
 10 23  1  0  0  0  0
 11 24  1  0  0  0  0
 11 25  1  0  0  0  0
 11 26  1  0  0  0  0
 12 27  1  0  0  0  0
 12 28  1  0  0  0  0
 12 29  1  0  0  0  0
M  END
> <PUBCHEM_COMPOUND_CID>
21482708

> <PUBCHEM_COMPOUND_CANONICALIZED>
1

> <PUBCHEM_CACTVS_COMPLEXITY>
187

> <PUBCHEM_CACTVS_HBOND_ACCEPTOR>
5

> <PUBCHEM_CACTVS_HBOND_DONOR>
1

> <PUBCHEM_CACTVS_ROTATABLE_BOND>
6

> <PUBCHEM_CACTVS_SUBSKEYS>
AAADceBwOAAAAAAAAAAAAAAAAAAAAAAAAAAAAAAAAAAAAAAAAAAAGgAACAAACBSggAICCAAABgAIAACQCAIAAAAAAAAAAAFAAAABEAQIAAACAAABIAADAAAAAAAAAAAAAAAAAAAAAAAAAAAAAAAAAAAAAA==

> <PUBCHEM_IUPAC_OPENEYE_NAME>
diisopropyl 2-hydroxypropanedioate

> <PUBCHEM_IUPAC_CAS_NAME>
2-hydroxypropanedioic acid dipropan-2-yl ester

> <PUBCHEM_IUPAC_NAME_MARKUP>
dipropan-2-yl 2-hydroxypropanedioate

> <PUBCHEM_IUPAC_NAME>
dipropan-2-yl 2-hydroxypropanedioate

> <PUBCHEM_IUPAC_SYSTEMATIC_NAME>
dipropan-2-yl 2-oxidanylpropanedioate

> <PUBCHEM_IUPAC_TRADITIONAL_NAME>
2-hydroxymalonic acid diisopropyl ester

> <PUBCHEM_IUPAC_INCHI>
InChI=1S/C9H16O5/c1-5(2)13-8(11)7(10)9(12)14-6(3)4/h5-7,10H,1-4H3

> <PUBCHEM_IUPAC_INCHIKEY>
RSFIMMNVTRGWEU-UHFFFAOYSA-N

> <PUBCHEM_XLOGP3_AA>
1.2

> <PUBCHEM_EXACT_MASS>
204.09977361

> <PUBCHEM_MOLECULAR_FORMULA>
C9H16O5

> <PUBCHEM_MOLECULAR_WEIGHT>
204.22

> <PUBCHEM_OPENEYE_CAN_SMILES>
CC(C)OC(=O)C(C(=O)OC(C)C)O

> <PUBCHEM_OPENEYE_ISO_SMILES>
CC(C)OC(=O)C(C(=O)OC(C)C)O

> <PUBCHEM_CACTVS_TPSA>
72.8

> <PUBCHEM_MONOISOTOPIC_WEIGHT>
204.09977361

> <PUBCHEM_TOTAL_CHARGE>
0

> <PUBCHEM_HEAVY_ATOM_COUNT>
14

> <PUBCHEM_ATOM_DEF_STEREO_COUNT>
0

> <PUBCHEM_ATOM_UDEF_STEREO_COUNT>
0

> <PUBCHEM_BOND_DEF_STEREO_COUNT>
0

> <PUBCHEM_BOND_UDEF_STEREO_COUNT>
0

> <PUBCHEM_ISOTOPIC_ATOM_COUNT>
0

> <PUBCHEM_COMPONENT_COUNT>
1

> <PUBCHEM_CACTVS_TAUTO_COUNT>
-1

> <PUBCHEM_COORDINATE_TYPE>
1
5
255

$$$$
