 
  -OEChem-10192103382D

 63 68  0     1  0  0  0  0  0999 V2000
    8.4059    0.2559    0.0000 O   0  0  0  0  0  0  0  0  0  0  0  0
    7.8155    2.0590    0.0000 O   0  0  0  0  0  0  0  0  0  0  0  0
    6.8671   -1.2441    0.0000 O   0  0  0  0  0  0  0  0  0  0  0  0
    6.1267    3.0345    0.0000 O   0  0  0  0  0  0  0  0  0  0  0  0
    6.0010    2.2559    0.0000 O   0  0  0  0  0  0  0  0  0  0  0  0
    5.1350   -1.2441    0.0000 O   0  0  0  0  0  0  0  0  0  0  0  0
    6.8671   -3.2441    0.0000 O   0  0  0  0  0  0  0  0  0  0  0  0
    5.1350   -4.2441    0.0000 O   0  0  0  0  0  0  0  0  0  0  0  0
    4.6742    1.1426    0.0000 O   0  0  0  0  0  0  0  0  0  0  0  0
    3.4030   -3.2441    0.0000 O   0  0  0  0  0  0  0  0  0  0  0  0
    2.5369   -1.7441    0.0000 O   0  0  0  0  0  0  0  0  0  0  0  0
    5.7003    3.9617    0.0000 O   0  0  0  0  0  0  0  0  0  0  0  0
    6.8671    0.7559    0.0000 C   0  0  1  0  0  0  0  0  0  0  0  0
    6.8671   -0.2441    0.0000 C   0  0  2  0  0  0  0  0  0  0  0  0
    6.2848    1.5617    0.0000 C   0  0  1  0  0  0  0  0  0  0  0  0
    7.8181   -0.5531    0.0000 C   0  0  2  0  0  0  0  0  0  0  0  0
    6.2793    0.5632    0.0000 C   0  0  0  0  0  0  0  0  0  0  0  0
    6.8698    2.3654    0.0000 C   0  0  1  0  0  0  0  0  0  0  0  0
    7.8181    1.0650    0.0000 C   0  0  2  0  0  0  0  0  0  0  0  0
    8.1865    1.1799    0.0000 C   0  0  0  0  0  0  0  0  0  0  0  0
    6.8671    1.7559    0.0000 C   0  0  0  0  0  0  0  0  0  0  0  0
    8.1271   -1.5041    0.0000 C   0  0  0  0  0  0  0  0  0  0  0  0
    6.0010   -1.7441    0.0000 C   0  0  2  0  0  0  0  0  0  0  0  0
    6.0010   -2.7441    0.0000 C   0  0  1  0  0  0  0  0  0  0  0  0
    5.0162    2.0823    0.0000 C   0  0  0  0  0  0  0  0  0  0  0  0
    5.1350   -3.2441    0.0000 C   0  0  2  0  0  0  0  0  0  0  0  0
    4.2690   -1.7441    0.0000 C   0  0  1  0  0  0  0  0  0  0  0  0
    4.2690   -2.7441    0.0000 C   0  0  1  0  0  0  0  0  0  0  0  0
    4.3735    2.8484    0.0000 C   0  0  0  0  0  0  0  0  0  0  0  0
    3.4030   -1.2441    0.0000 C   0  0  0  0  0  0  0  0  0  0  0  0
    4.7155    3.7880    0.0000 C   0  0  0  0  0  0  0  0  0  0  0  0
    3.3886    2.6748    0.0000 C   0  0  0  0  0  0  0  0  0  0  0  0
    4.0727    4.5541    0.0000 C   0  0  0  0  0  0  0  0  0  0  0  0
    2.7459    3.4408    0.0000 C   0  0  0  0  0  0  0  0  0  0  0  0
    3.0879    4.3804    0.0000 C   0  0  0  0  0  0  0  0  0  0  0  0
    5.4856    1.2723    0.0000 H   0  0  0  0  0  0  0  0  0  0  0  0
    5.6903    0.7567    0.0000 H   0  0  0  0  0  0  0  0  0  0  0  0
    5.9143    0.0620    0.0000 H   0  0  0  0  0  0  0  0  0  0  0  0
    8.6062    0.7465    0.0000 H   0  0  0  0  0  0  0  0  0  0  0  0
    8.7613    0.9476    0.0000 H   0  0  0  0  0  0  0  0  0  0  0  0
    8.5150    1.7057    0.0000 H   0  0  0  0  0  0  0  0  0  0  0  0
    7.4776    1.6483    0.0000 H   0  0  0  0  0  0  0  0  0  0  0  0
    7.0791    2.3385    0.0000 H   0  0  0  0  0  0  0  0  0  0  0  0
    7.5375   -1.6957    0.0000 H   0  0  0  0  0  0  0  0  0  0  0  0
    8.3187   -2.0938    0.0000 H   0  0  0  0  0  0  0  0  0  0  0  0
    8.7168   -1.3126    0.0000 H   0  0  0  0  0  0  0  0  0  0  0  0
    6.2556    3.6410    0.0000 H   0  0  0  0  0  0  0  0  0  0  0  0
    6.0010   -1.1241    0.0000 H   0  0  0  0  0  0  0  0  0  0  0  0
    6.0010   -3.3641    0.0000 H   0  0  0  0  0  0  0  0  0  0  0  0
    4.5981   -3.5541    0.0000 H   0  0  0  0  0  0  0  0  0  0  0  0
    4.2690   -1.1241    0.0000 H   0  0  0  0  0  0  0  0  0  0  0  0
    4.2690   -3.3641    0.0000 H   0  0  0  0  0  0  0  0  0  0  0  0
    6.8671   -3.8641    0.0000 H   0  0  0  0  0  0  0  0  0  0  0  0
    3.8015   -0.7691    0.0000 H   0  0  0  0  0  0  0  0  0  0  0  0
    3.0044   -0.7691    0.0000 H   0  0  0  0  0  0  0  0  0  0  0  0
    4.5981   -4.5541    0.0000 H   0  0  0  0  0  0  0  0  0  0  0  0
    3.4030   -3.8641    0.0000 H   0  0  0  0  0  0  0  0  0  0  0  0
    3.1766    2.0922    0.0000 H   0  0  0  0  0  0  0  0  0  0  0  0
    2.0000   -1.4341    0.0000 H   0  0  0  0  0  0  0  0  0  0  0  0
    4.2847    5.1367    0.0000 H   0  0  0  0  0  0  0  0  0  0  0  0
    2.1353    3.3332    0.0000 H   0  0  0  0  0  0  0  0  0  0  0  0
    5.9123    4.5443    0.0000 H   0  0  0  0  0  0  0  0  0  0  0  0
    2.6893    4.8554    0.0000 H   0  0  0  0  0  0  0  0  0  0  0  0
  1 16  1  0  0  0  0
  1 19  1  0  0  0  0
  2 18  1  0  0  0  0
  2 19  1  0  0  0  0
 14  3  1  6  0  0  0
 23  3  1  1  0  0  0
 18  4  1  1  0  0  0
  4 47  1  0  0  0  0
  5 21  1  0  0  0  0
  5 25  1  0  0  0  0
  6 23  1  0  0  0  0
  6 27  1  0  0  0  0
 24  7  1  6  0  0  0
  7 53  1  0  0  0  0
 26  8  1  1  0  0  0
  8 56  1  0  0  0  0
  9 25  2  0  0  0  0
 28 10  1  6  0  0  0
 10 57  1  0  0  0  0
 11 30  1  0  0  0  0
 11 59  1  0  0  0  0
 12 31  1  0  0  0  0
 12 62  1  0  0  0  0
 13 14  1  0  0  0  0
 13 15  1  0  0  0  0
 13 19  1  0  0  0  0
 13 21  1  6  0  0  0
 14 16  1  0  0  0  0
 14 17  1  0  0  0  0
 15 17  1  0  0  0  0
 15 18  1  0  0  0  0
 15 36  1  6  0  0  0
 16 20  1  0  0  0  0
 16 22  1  1  0  0  0
 17 37  1  0  0  0  0
 17 38  1  0  0  0  0
 18 20  1  0  0  0  0
 19 39  1  6  0  0  0
 20 40  1  0  0  0  0
 20 41  1  0  0  0  0
 21 42  1  0  0  0  0
 21 43  1  0  0  0  0
 22 44  1  0  0  0  0
 22 45  1  0  0  0  0
 22 46  1  0  0  0  0
 23 24  1  0  0  0  0
 23 48  1  0  0  0  0
 24 26  1  0  0  0  0
 24 49  1  0  0  0  0
 25 29  1  0  0  0  0
 26 28  1  0  0  0  0
 26 50  1  0  0  0  0
 27 28  1  0  0  0  0
 27 30  1  1  0  0  0
 27 51  1  0  0  0  0
 28 52  1  0  0  0  0
 29 31  1  0  0  0  0
 29 32  2  0  0  0  0
 30 54  1  0  0  0  0
 30 55  1  0  0  0  0
 31 33  2  0  0  0  0
 32 34  1  0  0  0  0
 32 58  1  0  0  0  0
 33 35  1  0  0  0  0
 33 60  1  0  0  0  0
 34 35  2  0  0  0  0
 34 61  1  0  0  0  0
 35 63  1  0  0  0  0
M  END
> <PUBCHEM_COMPOUND_CID>
101863446

> <PUBCHEM_COMPOUND_CANONICALIZED>
1

> <PUBCHEM_CACTVS_COMPLEXITY>
887

> <PUBCHEM_CACTVS_HBOND_ACCEPTOR>
12

> <PUBCHEM_CACTVS_HBOND_DONOR>
6

> <PUBCHEM_CACTVS_ROTATABLE_BOND>
7

> <PUBCHEM_CACTVS_SUBSKEYS>
AAADceB4PAAAAAAAAAAAAAAAAABgASJAAAA0aIEAAAAAAAABAAAAGgAACAAAD1SwmAMyDoAABgCIAiDSCAACAAAkIAAIiAEGCMgZNzaCNRqicUAl4BEPuYfI6PyPgAAAAAAIAADCAAYQADCAAAAAAAAAAA==

> <PUBCHEM_IUPAC_OPENEYE_NAME>
[(1R,2S,3R,5R,6R,8S)-6-hydroxy-8-methyl-3-[(2S,3R,4S,5S,6R)-3,4,5-trihydroxy-6-(hydroxymethyl)tetrahydropyran-2-yl]oxy-9,10-dioxatetracyclo[4.3.1.02,5.03,8]decan-2-yl]methyl 2-hydroxybenzoate

> <PUBCHEM_IUPAC_CAS_NAME>
2-hydroxybenzoic acid [(1R,2S,3R,5R,6R,8S)-6-hydroxy-8-methyl-3-[[(2S,3R,4S,5S,6R)-3,4,5-trihydroxy-6-(hydroxymethyl)-2-oxanyl]oxy]-9,10-dioxatetracyclo[4.3.1.02,5.03,8]decan-2-yl]methyl ester

> <PUBCHEM_IUPAC_NAME_MARKUP>
[(1<I>R</I>,2<I>S</I>,3<I>R</I>,5<I>R</I>,6<I>R</I>,8<I>S</I>)-6-hydroxy-8-methyl-3-[(2<I>S</I>,3<I>R</I>,4<I>S</I>,5<I>S</I>,6<I>R</I>)-3,4,5-trihydroxy-6-(hydroxymethyl)oxan-2-yl]oxy-9,10-dioxatetracyclo[4.3.1.0<SUP>2,5</SUP>.0<SUP>3,8</SUP>]decan-2-yl]methyl 2-hydroxybenzoate

> <PUBCHEM_IUPAC_NAME>
[(1R,2S,3R,5R,6R,8S)-6-hydroxy-8-methyl-3-[(2S,3R,4S,5S,6R)-3,4,5-trihydroxy-6-(hydroxymethyl)oxan-2-yl]oxy-9,10-dioxatetracyclo[4.3.1.02,5.03,8]decan-2-yl]methyl 2-hydroxybenzoate

> <PUBCHEM_IUPAC_SYSTEMATIC_NAME>
[(1R,2S,3R,5R,6R,8S)-3-[(2S,3R,4S,5S,6R)-6-(hydroxymethyl)-3,4,5-tris(oxidanyl)oxan-2-yl]oxy-8-methyl-6-oxidanyl-9,10-dioxatetracyclo[4.3.1.02,5.03,8]decan-2-yl]methyl 2-oxidanylbenzoate

> <PUBCHEM_IUPAC_TRADITIONAL_NAME>
2-hydroxybenzoic acid [(1R,2S,3R,5R,6R,8S)-6-hydroxy-8-methyl-3-[(2S,3R,4S,5S,6R)-3,4,5-trihydroxy-6-methylol-tetrahydropyran-2-yl]oxy-9,10-dioxatetracyclo[4.3.1.02,5.03,8]decan-2-yl]methyl ester

> <PUBCHEM_IUPAC_INCHI>
InChI=1S/C23H28O12/c1-20-8-22(30)13-6-23(20,33-18-16(28)15(27)14(26)12(7-24)32-18)21(13,19(34-20)35-22)9-31-17(29)10-4-2-3-5-11(10)25/h2-5,12-16,18-19,24-28,30H,6-9H2,1H3/t12-,13-,14-,15+,16-,18+,19-,20+,21+,22-,23+/m1/s1

> <PUBCHEM_IUPAC_INCHIKEY>
RKFGRSALSODQMH-WRJNSLSBSA-N

> <PUBCHEM_XLOGP3_AA>
-0.8

> <PUBCHEM_EXACT_MASS>
496.15807632

> <PUBCHEM_MOLECULAR_FORMULA>
C23H28O12

> <PUBCHEM_MOLECULAR_WEIGHT>
496.5

> <PUBCHEM_OPENEYE_CAN_SMILES>
CC12CC3(C4CC1(C4(C(O2)O3)COC(=O)C5=CC=CC=C5O)OC6C(C(C(C(O6)CO)O)O)O)O

> <PUBCHEM_OPENEYE_ISO_SMILES>
C[C@]12C[C@@]3([C@@H]4C[C@]1([C@@]4([C@H](O2)O3)COC(=O)C5=CC=CC=C5O)O[C@H]6[C@@H]([C@H]([C@@H]([C@H](O6)CO)O)O)O)O

> <PUBCHEM_CACTVS_TPSA>
185

> <PUBCHEM_MONOISOTOPIC_WEIGHT>
496.15807632

> <PUBCHEM_TOTAL_CHARGE>
0

> <PUBCHEM_HEAVY_ATOM_COUNT>
35

> <PUBCHEM_ATOM_DEF_STEREO_COUNT>
11

> <PUBCHEM_ATOM_UDEF_STEREO_COUNT>
0

> <PUBCHEM_BOND_DEF_STEREO_COUNT>
0

> <PUBCHEM_BOND_UDEF_STEREO_COUNT>
0

> <PUBCHEM_ISOTOPIC_ATOM_COUNT>
0

> <PUBCHEM_COMPONENT_COUNT>
1

> <PUBCHEM_CACTVS_TAUTO_COUNT>
-1

> <PUBCHEM_COORDINATE_TYPE>
1
5
255

> <PUBCHEM_BONDANNOTATIONS>
28  10  6
13  21  6
15  36  6
16  22  5
19  39  6
27  30  5
29  31  8
29  32  8
14  3  6
23  3  5
31  33  8
32  34  8
33  35  8
34  35  8
18  4  5
24  7  6
26  8  5

$$$$
