 
  -OEChem-10192103312D

 78 82  0     1  0  0  0  0  0999 V2000
    8.2103    1.7274    0.0000 O   0  3  0  0  0  0  0  0  0  0  0  0
   14.8632   -0.8254    0.0000 O   0  0  0  0  0  0  0  0  0  0  0  0
    9.7939   -0.8094    0.0000 O   0  0  0  0  0  0  0  0  0  0  0  0
    6.3981   -1.0774    0.0000 O   0  0  0  0  0  0  0  0  0  0  0  0
   13.2939    1.7886    0.0000 O   0  0  0  0  0  0  0  0  0  0  0  0
    6.3981    2.9226    0.0000 O   0  0  0  0  0  0  0  0  0  0  0  0
   11.2939    1.7886    0.0000 O   0  0  0  0  0  0  0  0  0  0  0  0
    4.6497    2.9572    0.0000 O   0  0  0  0  0  0  0  0  0  0  0  0
    4.6497   -1.1120    0.0000 O   0  0  0  0  0  0  0  0  0  0  0  0
   15.8390   -2.5993    0.0000 O   0  0  0  0  0  0  0  0  0  0  0  0
    2.8680    1.9468    0.0000 O   0  0  0  0  0  0  0  0  0  0  0  0
   14.3357   -3.4595    0.0000 O   0  0  0  0  0  0  0  0  0  0  0  0
   10.2939    0.0566    0.0000 C   0  0  3  0  0  0  0  0  0  0  0  0
    9.7939    0.9226    0.0000 C   0  0  0  0  0  0  0  0  0  0  0  0
    8.7939    0.9226    0.0000 C   0  0  0  0  0  0  0  0  0  0  0  0
    8.2103    0.1179    0.0000 C   0  0  0  0  0  0  0  0  0  0  0  0
    7.2641    0.4226    0.0000 C   0  0  0  0  0  0  0  0  0  0  0  0
   12.7939   -0.8094    0.0000 C   0  0  0  0  0  0  0  0  0  0  0  0
   11.2939    0.0566    0.0000 C   0  0  0  0  0  0  0  0  0  0  0  0
   13.2939    0.0566    0.0000 C   0  0  0  0  0  0  0  0  0  0  0  0
   13.3008   -1.7194    0.0000 C   0  0  0  0  0  0  0  0  0  0  0  0
    7.2641    1.4226    0.0000 C   0  0  0  0  0  0  0  0  0  0  0  0
   11.7939   -0.8094    0.0000 C   0  0  0  0  0  0  0  0  0  0  0  0
   14.3424   -1.7275    0.0000 C   0  0  3  0  0  0  0  0  0  0  0  0
    6.3981   -0.0774    0.0000 C   0  0  0  0  0  0  0  0  0  0  0  0
   14.3354    0.0727    0.0000 C   0  0  0  0  0  0  0  0  0  0  0  0
    5.5320    0.4226    0.0000 C   0  0  0  0  0  0  0  0  0  0  0  0
   11.7939    0.9226    0.0000 C   0  0  0  0  0  0  0  0  0  0  0  0
   12.7939    0.9226    0.0000 C   0  0  0  0  0  0  0  0  0  0  0  0
    5.5320    1.4226    0.0000 C   0  0  0  0  0  0  0  0  0  0  0  0
    6.3981    1.9226    0.0000 C   0  0  0  0  0  0  0  0  0  0  0  0
    4.6381   -0.1120    0.0000 C   0  0  0  0  0  0  0  0  0  0  0  0
    4.6381    1.9573    0.0000 C   0  0  0  0  0  0  0  0  0  0  0  0
   14.8390   -2.5954    0.0000 C   0  0  0  0  0  0  0  0  0  0  0  0
    3.7320    1.4434    0.0000 C   0  0  0  0  0  0  0  0  0  0  0  0
    3.7320    0.4018    0.0000 C   0  0  0  0  0  0  0  0  0  0  0  0
    7.2641   -1.5774    0.0000 C   0  0  0  0  0  0  0  0  0  0  0  0
   14.2939    1.7886    0.0000 C   0  0  0  0  0  0  0  0  0  0  0  0
    7.2641    3.4226    0.0000 C   0  0  0  0  0  0  0  0  0  0  0  0
    3.7895    3.4672    0.0000 C   0  0  0  0  0  0  0  0  0  0  0  0
    3.7895   -1.6220    0.0000 C   0  0  0  0  0  0  0  0  0  0  0  0
   16.3357   -3.4672    0.0000 C   0  0  0  0  0  0  0  0  0  0  0  0
    2.0000    1.4501    0.0000 C   0  0  0  0  0  0  0  0  0  0  0  0
   10.3765    1.1347    0.0000 H   0  0  0  0  0  0  0  0  0  0  0  0
    9.6863    1.5332    0.0000 H   0  0  0  0  0  0  0  0  0  0  0  0
   10.6039   -0.4803    0.0000 H   0  0  0  0  0  0  0  0  0  0  0  0
    7.9593   -0.4490    0.0000 H   0  0  0  0  0  0  0  0  0  0  0  0
    8.7477   -0.1913    0.0000 H   0  0  0  0  0  0  0  0  0  0  0  0
   12.7155   -1.9240    0.0000 H   0  0  0  0  0  0  0  0  0  0  0  0
   13.4022   -2.3311    0.0000 H   0  0  0  0  0  0  0  0  0  0  0  0
   11.4839   -1.3464    0.0000 H   0  0  0  0  0  0  0  0  0  0  0  0
   14.9624   -1.7286    0.0000 H   0  0  0  0  0  0  0  0  0  0  0  0
   14.9158    0.2907    0.0000 H   0  0  0  0  0  0  0  0  0  0  0  0
   14.2199    0.6818    0.0000 H   0  0  0  0  0  0  0  0  0  0  0  0
   10.1039   -1.3464    0.0000 H   0  0  0  0  0  0  0  0  0  0  0  0
    3.1963    0.0897    0.0000 H   0  0  0  0  0  0  0  0  0  0  0  0
   11.6039    2.3256    0.0000 H   0  0  0  0  0  0  0  0  0  0  0  0
    6.9541   -2.1143    0.0000 H   0  0  0  0  0  0  0  0  0  0  0  0
    7.8010   -1.8874    0.0000 H   0  0  0  0  0  0  0  0  0  0  0  0
    7.5741   -1.0404    0.0000 H   0  0  0  0  0  0  0  0  0  0  0  0
   14.2939    1.1686    0.0000 H   0  0  0  0  0  0  0  0  0  0  0  0
   14.9139    1.7886    0.0000 H   0  0  0  0  0  0  0  0  0  0  0  0
   14.2939    2.4086    0.0000 H   0  0  0  0  0  0  0  0  0  0  0  0
    7.5741    2.8857    0.0000 H   0  0  0  0  0  0  0  0  0  0  0  0
    7.8010    3.7326    0.0000 H   0  0  0  0  0  0  0  0  0  0  0  0
    6.9541    3.9596    0.0000 H   0  0  0  0  0  0  0  0  0  0  0  0
    4.1057    4.0005    0.0000 H   0  0  0  0  0  0  0  0  0  0  0  0
    3.2562    3.7834    0.0000 H   0  0  0  0  0  0  0  0  0  0  0  0
    3.4733    2.9339    0.0000 H   0  0  0  0  0  0  0  0  0  0  0  0
    3.4733   -1.0886    0.0000 H   0  0  0  0  0  0  0  0  0  0  0  0
    3.2562   -1.9381    0.0000 H   0  0  0  0  0  0  0  0  0  0  0  0
    4.1057   -2.1553    0.0000 H   0  0  0  0  0  0  0  0  0  0  0  0
   15.7976   -3.7751    0.0000 H   0  0  0  0  0  0  0  0  0  0  0  0
   16.6436   -4.0053    0.0000 H   0  0  0  0  0  0  0  0  0  0  0  0
   16.8738   -3.1593    0.0000 H   0  0  0  0  0  0  0  0  0  0  0  0
    1.6921    1.9882    0.0000 H   0  0  0  0  0  0  0  0  0  0  0  0
    1.4619    1.1422    0.0000 H   0  0  0  0  0  0  0  0  0  0  0  0
    2.3079    0.9120    0.0000 H   0  0  0  0  0  0  0  0  0  0  0  0
  1 15  2  0  0  0  0
  1 22  1  0  0  0  0
  2 24  1  0  0  0  0
  2 26  1  0  0  0  0
  3 13  1  0  0  0  0
  3 55  1  0  0  0  0
  4 25  1  0  0  0  0
  4 37  1  0  0  0  0
  5 29  1  0  0  0  0
  5 38  1  0  0  0  0
  6 31  1  0  0  0  0
  6 39  1  0  0  0  0
  7 28  1  0  0  0  0
  7 57  1  0  0  0  0
  8 33  1  0  0  0  0
  8 40  1  0  0  0  0
  9 32  1  0  0  0  0
  9 41  1  0  0  0  0
 10 34  1  0  0  0  0
 10 42  1  0  0  0  0
 11 35  1  0  0  0  0
 11 43  1  0  0  0  0
 12 34  2  0  0  0  0
 13 14  1  0  0  0  0
 13 19  1  0  0  0  0
 13 46  1  0  0  0  0
 14 15  1  0  0  0  0
 14 44  1  0  0  0  0
 14 45  1  0  0  0  0
 15 16  1  0  0  0  0
 16 17  1  0  0  0  0
 16 47  1  0  0  0  0
 16 48  1  0  0  0  0
 17 22  2  0  0  0  0
 17 25  1  0  0  0  0
 18 20  1  0  0  0  0
 18 21  1  0  0  0  0
 18 23  2  0  0  0  0
 19 23  1  0  0  0  0
 19 28  2  0  0  0  0
 20 26  1  0  0  0  0
 20 29  2  0  0  0  0
 21 24  1  0  0  0  0
 21 49  1  0  0  0  0
 21 50  1  0  0  0  0
 22 31  1  0  0  0  0
 23 51  1  0  0  0  0
 24 34  1  0  0  0  0
 24 52  1  0  0  0  0
 25 27  2  0  0  0  0
 26 53  1  0  0  0  0
 26 54  1  0  0  0  0
 27 30  1  0  0  0  0
 27 32  1  0  0  0  0
 28 29  1  0  0  0  0
 30 31  2  0  0  0  0
 30 33  1  0  0  0  0
 32 36  2  0  0  0  0
 33 35  2  0  0  0  0
 35 36  1  0  0  0  0
 36 56  1  0  0  0  0
 37 58  1  0  0  0  0
 37 59  1  0  0  0  0
 37 60  1  0  0  0  0
 38 61  1  0  0  0  0
 38 62  1  0  0  0  0
 38 63  1  0  0  0  0
 39 64  1  0  0  0  0
 39 65  1  0  0  0  0
 39 66  1  0  0  0  0
 40 67  1  0  0  0  0
 40 68  1  0  0  0  0
 40 69  1  0  0  0  0
 41 70  1  0  0  0  0
 41 71  1  0  0  0  0
 41 72  1  0  0  0  0
 42 73  1  0  0  0  0
 42 74  1  0  0  0  0
 42 75  1  0  0  0  0
 43 76  1  0  0  0  0
 43 77  1  0  0  0  0
 43 78  1  0  0  0  0
M  CHG  1   1   1
M  END
> <PUBCHEM_COMPOUND_CID>
101951724

> <PUBCHEM_COMPOUND_CANONICALIZED>
1

> <PUBCHEM_CACTVS_COMPLEXITY>
976

> <PUBCHEM_CACTVS_HBOND_ACCEPTOR>
11

> <PUBCHEM_CACTVS_HBOND_DONOR>
2

> <PUBCHEM_CACTVS_ROTATABLE_BOND>
11

> <PUBCHEM_CACTVS_SUBSKEYS>
AAADcfB4PAAAAAAAAAAAAAAAAAAAAQAAAAA0YMEAAAAAAEDRVAAAGgAACAAADBSgmAIyDsAABgCIAqDSCAICCAAgIAAAiAFGiIgNNzaGNR6CcCMl4BULuAfK7PzO4QADCAAYQADCAAYQADCAAAAAAAAAAA==

> <PUBCHEM_IUPAC_OPENEYE_NAME>
methyl 7-hydroxy-6-[1-hydroxy-2-(4,5,7,8,9-pentamethoxy-3H-benzo[f]benzofuran-1-ium-2-yl)ethyl]-8-methoxy-isochromane-3-carboxylate

> <PUBCHEM_IUPAC_CAS_NAME>
7-hydroxy-6-[1-hydroxy-2-(4,5,7,8,9-pentamethoxy-3H-benzo[f]benzofuran-1-ium-2-yl)ethyl]-8-methoxy-3,4-dihydro-1H-2-benzopyran-3-carboxylic acid methyl ester

> <PUBCHEM_IUPAC_NAME_MARKUP>
methyl 7-hydroxy-6-[1-hydroxy-2-(4,5,7,8,9-pentamethoxy-3<I>H</I>-benzo[f][1]benzofuran-1-ium-2-yl)ethyl]-8-methoxy-3,4-dihydro-1<I>H</I>-isochromene-3-carboxylate

> <PUBCHEM_IUPAC_NAME>
methyl 7-hydroxy-6-[1-hydroxy-2-(4,5,7,8,9-pentamethoxy-3H-benzo[f][1]benzofuran-1-ium-2-yl)ethyl]-8-methoxy-3,4-dihydro-1H-isochromene-3-carboxylate

> <PUBCHEM_IUPAC_SYSTEMATIC_NAME>
methyl 8-methoxy-7-oxidanyl-6-[1-oxidanyl-2-(4,5,7,8,9-pentamethoxy-3H-benzo[f][1]benzofuran-1-ium-2-yl)ethyl]-3,4-dihydro-1H-isochromene-3-carboxylate

> <PUBCHEM_IUPAC_TRADITIONAL_NAME>
7-hydroxy-6-[1-hydroxy-2-(4,5,7,8,9-pentamethoxy-3H-benzo[f]benzofuran-1-ium-2-yl)ethyl]-8-methoxy-isochroman-3-carboxylic acid methyl ester

> <PUBCHEM_IUPAC_INCHI>
InChI=1S/C31H34O12/c1-35-20-12-21(36-2)29(39-5)24-23(20)26(37-3)17-10-15(43-28(17)30(24)40-6)11-19(32)16-8-14-9-22(31(34)41-7)42-13-18(14)27(38-4)25(16)33/h8,12,19,22,32H,9-11,13H2,1-7H3/p+1

> <PUBCHEM_IUPAC_INCHIKEY>
MDTLDTYAGHRBLW-UHFFFAOYSA-O

> <PUBCHEM_XLOGP3_AA>
3

> <PUBCHEM_EXACT_MASS>
599.21285155

> <PUBCHEM_MOLECULAR_FORMULA>
C31H35O12+

> <PUBCHEM_MOLECULAR_WEIGHT>
599.6

> <PUBCHEM_OPENEYE_CAN_SMILES>
COC1=CC(=C(C2=C(C3=C(CC(=[O+]3)CC(C4=C(C(=C5COC(CC5=C4)C(=O)OC)OC)O)O)C(=C12)OC)OC)OC)OC

> <PUBCHEM_OPENEYE_ISO_SMILES>
COC1=CC(=C(C2=C(C3=C(CC(=[O+]3)CC(C4=C(C(=C5COC(CC5=C4)C(=O)OC)OC)O)O)C(=C12)OC)OC)OC)OC

> <PUBCHEM_CACTVS_TPSA>
132

> <PUBCHEM_MONOISOTOPIC_WEIGHT>
599.21285155

> <PUBCHEM_TOTAL_CHARGE>
1

> <PUBCHEM_HEAVY_ATOM_COUNT>
43

> <PUBCHEM_ATOM_DEF_STEREO_COUNT>
0

> <PUBCHEM_ATOM_UDEF_STEREO_COUNT>
2

> <PUBCHEM_BOND_DEF_STEREO_COUNT>
0

> <PUBCHEM_BOND_UDEF_STEREO_COUNT>
0

> <PUBCHEM_ISOTOPIC_ATOM_COUNT>
0

> <PUBCHEM_COMPONENT_COUNT>
1

> <PUBCHEM_CACTVS_TAUTO_COUNT>
-1

> <PUBCHEM_COORDINATE_TYPE>
1
5
255

> <PUBCHEM_BONDANNOTATIONS>
17  22  8
17  25  8
18  20  8
18  23  8
19  23  8
19  28  8
20  29  8
22  31  8
24  34  3
25  27  8
27  30  8
27  32  8
28  29  8
13  3  3
30  31  8
30  33  8
32  36  8
33  35  8
35  36  8

$$$$
