 
  -OEChem-10192104352D

 70 72  0     1  0  0  0  0  0999 V2000
    6.0010   -1.0000    0.0000 O   0  0  0  0  0  0  0  0  0  0  0  0
    7.7331   -0.0000    0.0000 O   0  0  0  0  0  0  0  0  0  0  0  0
    6.0010    2.0000    0.0000 O   0  0  0  0  0  0  0  0  0  0  0  0
    4.2690   -1.0000    0.0000 O   0  0  0  0  0  0  0  0  0  0  0  0
    8.5991    1.5000    0.0000 O   0  0  0  0  0  0  0  0  0  0  0  0
    4.2690   -0.0000    0.0000 O   0  0  0  0  0  0  0  0  0  0  0  0
    7.7331    2.0000    0.0000 O   0  0  0  0  0  0  0  0  0  0  0  0
    6.0010   -3.0000    0.0000 O   0  0  0  0  0  0  0  0  0  0  0  0
    4.2690   -4.0000    0.0000 O   0  0  0  0  0  0  0  0  0  0  0  0
    9.4651   -1.0000    0.0000 O   0  0  0  0  0  0  0  0  0  0  0  0
    2.5369   -3.0000    0.0000 O   0  0  0  0  0  0  0  0  0  0  0  0
   11.1972   -0.0000    0.0000 O   0  0  0  0  0  0  0  0  0  0  0  0
   11.1972    2.0000    0.0000 O   0  0  0  0  0  0  0  0  0  0  0  0
    4.2690    3.0000    0.0000 O   0  0  0  0  0  0  0  0  0  0  0  0
    2.5369    0.0000    0.0000 O   0  0  0  0  0  0  0  0  0  0  0  0
    6.0010    0.0000    0.0000 C   0  0  2  0  0  0  0  0  0  0  0  0
    6.8671    0.5000    0.0000 C   0  0  3  0  0  0  0  0  0  0  0  0
    5.1350    0.5000    0.0000 C   0  0  2  0  0  0  0  0  0  0  0  0
    5.1350    1.5000    0.0000 C   0  0  3  0  0  0  0  0  0  0  0  0
    6.8671    1.5000    0.0000 C   0  0  1  0  0  0  0  0  0  0  0  0
    5.1350   -1.5000    0.0000 C   0  0  3  0  0  0  0  0  0  0  0  0
    8.5991    0.5000    0.0000 C   0  0  2  0  0  0  0  0  0  0  0  0
    5.1350   -2.5000    0.0000 C   0  0  3  0  0  0  0  0  0  0  0  0
    4.2690   -3.0000    0.0000 C   0  0  2  0  0  0  0  0  0  0  0  0
    9.4651   -0.0000    0.0000 C   0  0  3  0  0  0  0  0  0  0  0  0
    3.4030   -2.5000    0.0000 C   0  0  2  0  0  0  0  0  0  0  0  0
   10.3312    0.5000    0.0000 C   0  0  2  0  0  0  0  0  0  0  0  0
    3.4030   -1.5000    0.0000 C   0  0  3  0  0  0  0  0  0  0  0  0
   10.3312    1.5000    0.0000 C   0  0  1  0  0  0  0  0  0  0  0  0
    9.4651    2.0000    0.0000 C   0  0  3  0  0  0  0  0  0  0  0  0
    4.2690    2.0000    0.0000 C   0  0  0  0  0  0  0  0  0  0  0  0
    2.5369   -1.0000    0.0000 C   0  0  0  0  0  0  0  0  0  0  0  0
    9.4651    3.0000    0.0000 C   0  0  0  0  0  0  0  0  0  0  0  0
    7.7331    3.0000    0.0000 C   0  0  0  0  0  0  0  0  0  0  0  0
    6.8671    3.5000    0.0000 C   0  0  0  0  0  0  0  0  0  0  0  0
    6.0010    4.0000    0.0000 C   0  0  0  0  0  0  0  0  0  0  0  0
    5.4641   -0.3100    0.0000 H   0  0  0  0  0  0  0  0  0  0  0  0
    6.8671   -0.1200    0.0000 H   0  0  0  0  0  0  0  0  0  0  0  0
    4.5981    0.8100    0.0000 H   0  0  0  0  0  0  0  0  0  0  0  0
    5.1350    2.1200    0.0000 H   0  0  0  0  0  0  0  0  0  0  0  0
    7.4040    1.1900    0.0000 H   0  0  0  0  0  0  0  0  0  0  0  0
    5.1350   -0.8800    0.0000 H   0  0  0  0  0  0  0  0  0  0  0  0
    8.5991   -0.1200    0.0000 H   0  0  0  0  0  0  0  0  0  0  0  0
    5.1350   -3.1200    0.0000 H   0  0  0  0  0  0  0  0  0  0  0  0
    3.7320   -3.3100    0.0000 H   0  0  0  0  0  0  0  0  0  0  0  0
   10.0021   -0.3100    0.0000 H   0  0  0  0  0  0  0  0  0  0  0  0
    3.4030   -3.1200    0.0000 H   0  0  0  0  0  0  0  0  0  0  0  0
   10.8681    0.8100    0.0000 H   0  0  0  0  0  0  0  0  0  0  0  0
    3.4030   -0.8800    0.0000 H   0  0  0  0  0  0  0  0  0  0  0  0
   10.3312    2.1200    0.0000 H   0  0  0  0  0  0  0  0  0  0  0  0
    8.9282    2.3100    0.0000 H   0  0  0  0  0  0  0  0  0  0  0  0
    3.6584    2.1077    0.0000 H   0  0  0  0  0  0  0  0  0  0  0  0
    4.0569    1.4174    0.0000 H   0  0  0  0  0  0  0  0  0  0  0  0
    3.7320    0.3100    0.0000 H   0  0  0  0  0  0  0  0  0  0  0  0
    1.9264   -0.8923    0.0000 H   0  0  0  0  0  0  0  0  0  0  0  0
    2.3249   -1.5826    0.0000 H   0  0  0  0  0  0  0  0  0  0  0  0
   10.0851    3.0000    0.0000 H   0  0  0  0  0  0  0  0  0  0  0  0
    9.4651    3.6200    0.0000 H   0  0  0  0  0  0  0  0  0  0  0  0
    8.8451    3.0000    0.0000 H   0  0  0  0  0  0  0  0  0  0  0  0
    6.0010   -3.6200    0.0000 H   0  0  0  0  0  0  0  0  0  0  0  0
    3.7320   -4.3100    0.0000 H   0  0  0  0  0  0  0  0  0  0  0  0
   10.0021   -1.3100    0.0000 H   0  0  0  0  0  0  0  0  0  0  0  0
    2.0000   -2.6900    0.0000 H   0  0  0  0  0  0  0  0  0  0  0  0
   11.7341    0.3100    0.0000 H   0  0  0  0  0  0  0  0  0  0  0  0
   11.1972    2.6200    0.0000 H   0  0  0  0  0  0  0  0  0  0  0  0
    8.3437    2.8923    0.0000 H   0  0  0  0  0  0  0  0  0  0  0  0
    7.9451    3.5826    0.0000 H   0  0  0  0  0  0  0  0  0  0  0  0
    3.7320    3.3100    0.0000 H   0  0  0  0  0  0  0  0  0  0  0  0
    2.0000    0.3100    0.0000 H   0  0  0  0  0  0  0  0  0  0  0  0
    5.4641    4.3100    0.0000 H   0  0  0  0  0  0  0  0  0  0  0  0
 16  1  1  1  0  0  0
  1 21  1  0  0  0  0
  2 17  1  0  0  0  0
 22  2  1  6  0  0  0
  3 19  1  0  0  0  0
  3 20  1  0  0  0  0
  4 21  1  0  0  0  0
  4 28  1  0  0  0  0
  5 22  1  0  0  0  0
  5 30  1  0  0  0  0
 18  6  1  1  0  0  0
  6 54  1  0  0  0  0
 20  7  1  1  0  0  0
  7 34  1  0  0  0  0
  8 23  1  0  0  0  0
  8 60  1  0  0  0  0
 24  9  1  1  0  0  0
  9 61  1  0  0  0  0
 10 25  1  0  0  0  0
 10 62  1  0  0  0  0
 26 11  1  1  0  0  0
 11 63  1  0  0  0  0
 27 12  1  6  0  0  0
 12 64  1  0  0  0  0
 29 13  1  1  0  0  0
 13 65  1  0  0  0  0
 14 31  1  0  0  0  0
 14 68  1  0  0  0  0
 15 32  1  0  0  0  0
 15 69  1  0  0  0  0
 16 17  1  0  0  0  0
 16 18  1  0  0  0  0
 16 37  1  0  0  0  0
 17 20  1  0  0  0  0
 17 38  1  0  0  0  0
 18 19  1  0  0  0  0
 18 39  1  0  0  0  0
 19 31  1  0  0  0  0
 19 40  1  0  0  0  0
 20 41  1  0  0  0  0
 21 23  1  0  0  0  0
 21 42  1  0  0  0  0
 22 25  1  0  0  0  0
 22 43  1  0  0  0  0
 23 24  1  0  0  0  0
 23 44  1  0  0  0  0
 24 26  1  0  0  0  0
 24 45  1  0  0  0  0
 25 27  1  0  0  0  0
 25 46  1  0  0  0  0
 26 28  1  0  0  0  0
 26 47  1  0  0  0  0
 27 29  1  0  0  0  0
 27 48  1  0  0  0  0
 28 32  1  0  0  0  0
 28 49  1  0  0  0  0
 29 30  1  0  0  0  0
 29 50  1  0  0  0  0
 30 33  1  0  0  0  0
 30 51  1  0  0  0  0
 31 52  1  0  0  0  0
 31 53  1  0  0  0  0
 32 55  1  0  0  0  0
 32 56  1  0  0  0  0
 33 57  1  0  0  0  0
 33 58  1  0  0  0  0
 33 59  1  0  0  0  0
 34 35  1  0  0  0  0
 34 66  1  0  0  0  0
 34 67  1  0  0  0  0
 35 36  3  0  0  0  0
 36 70  1  0  0  0  0
M  END
> <PUBCHEM_COMPOUND_CID>
90225146

> <PUBCHEM_COMPOUND_CANONICALIZED>
1

> <PUBCHEM_CACTVS_COMPLEXITY>
746

> <PUBCHEM_CACTVS_HBOND_ACCEPTOR>
15

> <PUBCHEM_CACTVS_HBOND_DONOR>
9

> <PUBCHEM_CACTVS_ROTATABLE_BOND>
8

> <PUBCHEM_CACTVS_SUBSKEYS>
AAADcfB4PAAAAAAAAAAAAAAAAAAAAAAAAAAkSJAAAAAAAAAAAAAAGgAACAAACBSwgAMCCAAABgBAGAAAAAAAAAAAAAAAAAAAAAAREAIAAAAiQAAFAAAHAAHAYAwAAAAAAAAAAAAAAAAAAAAAAAAAAAAAAA==

> <PUBCHEM_IUPAC_OPENEYE_NAME>
(2S,4S,5S)-2-[(2R,4S,5S)-5-hydroxy-6-(hydroxymethyl)-2-prop-2-ynoxy-4-[(4S,5R)-3,4,5-trihydroxy-6-(hydroxymethyl)tetrahydropyran-2-yl]oxy-tetrahydropyran-3-yl]oxy-6-methyl-tetrahydropyran-3,4,5-triol

> <PUBCHEM_IUPAC_CAS_NAME>
(2S,4S,5S)-2-[[(2R,4S,5S)-5-hydroxy-6-(hydroxymethyl)-2-prop-2-ynoxy-4-[[(4S,5R)-3,4,5-trihydroxy-6-(hydroxymethyl)-2-oxanyl]oxy]-3-oxanyl]oxy]-6-methyloxane-3,4,5-triol

> <PUBCHEM_IUPAC_NAME_MARKUP>
(2<I>S</I>,4<I>S</I>,5<I>S</I>)-2-[(2<I>R</I>,4<I>S</I>,5<I>S</I>)-5-hydroxy-6-(hydroxymethyl)-2-prop-2-ynoxy-4-[(4<I>S</I>,5<I>R</I>)-3,4,5-trihydroxy-6-(hydroxymethyl)oxan-2-yl]oxyoxan-3-yl]oxy-6-methyloxane-3,4,5-triol

> <PUBCHEM_IUPAC_NAME>
(2S,4S,5S)-2-[(2R,4S,5S)-5-hydroxy-6-(hydroxymethyl)-2-prop-2-ynoxy-4-[(4S,5R)-3,4,5-trihydroxy-6-(hydroxymethyl)oxan-2-yl]oxyoxan-3-yl]oxy-6-methyloxane-3,4,5-triol

> <PUBCHEM_IUPAC_SYSTEMATIC_NAME>
(2S,4S,5S)-2-[(2R,4S,5S)-6-(hydroxymethyl)-4-[(4S,5R)-6-(hydroxymethyl)-3,4,5-tris(oxidanyl)oxan-2-yl]oxy-5-oxidanyl-2-prop-2-ynoxy-oxan-3-yl]oxy-6-methyl-oxane-3,4,5-triol

> <PUBCHEM_IUPAC_TRADITIONAL_NAME>
(2S,4S,5S)-2-[(2R,4S,5S)-5-hydroxy-6-methylol-2-propargyloxy-4-[(4S,5R)-3,4,5-trihydroxy-6-methylol-tetrahydropyran-2-yl]oxy-tetrahydropyran-3-yl]oxy-6-methyl-tetrahydropyran-3,4,5-triol

> <PUBCHEM_IUPAC_INCHI>
InChI=1S/C21H34O15/c1-3-4-31-21-18(36-19-15(29)13(27)10(24)7(2)32-19)17(12(26)9(6-23)34-21)35-20-16(30)14(28)11(25)8(5-22)33-20/h1,7-30H,4-6H2,2H3/t7?,8?,9?,10-,11+,12+,13+,14+,15?,16?,17+,18?,19+,20?,21-/m1/s1

> <PUBCHEM_IUPAC_INCHIKEY>
YSFXHRWZWPXXNX-PPRKNYPUSA-N

> <PUBCHEM_XLOGP3_AA>
-4.6

> <PUBCHEM_EXACT_MASS>
526.18977037

> <PUBCHEM_MOLECULAR_FORMULA>
C21H34O15

> <PUBCHEM_MOLECULAR_WEIGHT>
526.5

> <PUBCHEM_OPENEYE_CAN_SMILES>
CC1C(C(C(C(O1)OC2C(C(C(OC2OCC#C)CO)O)OC3C(C(C(C(O3)CO)O)O)O)O)O)O

> <PUBCHEM_OPENEYE_ISO_SMILES>
CC1[C@H]([C@@H](C([C@@H](O1)OC2[C@H]([C@H](C(O[C@H]2OCC#C)CO)O)OC3C([C@H]([C@H](C(O3)CO)O)O)O)O)O)O

> <PUBCHEM_CACTVS_TPSA>
237

> <PUBCHEM_MONOISOTOPIC_WEIGHT>
526.18977037

> <PUBCHEM_TOTAL_CHARGE>
0

> <PUBCHEM_HEAVY_ATOM_COUNT>
36

> <PUBCHEM_ATOM_DEF_STEREO_COUNT>
8

> <PUBCHEM_ATOM_UDEF_STEREO_COUNT>
7

> <PUBCHEM_BOND_DEF_STEREO_COUNT>
0

> <PUBCHEM_BOND_UDEF_STEREO_COUNT>
0

> <PUBCHEM_ISOTOPIC_ATOM_COUNT>
0

> <PUBCHEM_COMPONENT_COUNT>
1

> <PUBCHEM_CACTVS_TAUTO_COUNT>
-1

> <PUBCHEM_COORDINATE_TYPE>
1
5
255

> <PUBCHEM_BONDANNOTATIONS>
16  1  5
21  1  3
25  10  3
26  11  5
27  12  6
29  13  5
19  31  3
17  2  3
22  2  6
28  32  3
30  33  3
18  6  5
20  7  5
23  8  3
24  9  5

$$$$
