 
  -OEChem-10192103492D

 76 80  0     1  0  0  0  0  0999 V2000
    2.5357   -2.2253    0.0000 O   0  0  0  0  0  0  0  0  0  0  0  0
    2.5519   -0.1337    0.0000 O   0  0  0  0  0  0  0  0  0  0  0  0
    4.3500   -4.0032    0.0000 O   0  0  0  0  0  0  0  0  0  0  0  0
   11.4608    0.8612    0.0000 O   0  0  0  0  0  0  0  0  0  0  0  0
   10.6064   -0.6455    0.0000 O   0  0  0  0  0  0  0  0  0  0  0  0
    7.0628   -0.6730    0.0000 C   0  0  2  0  0  0  0  0  0  0  0  0
    6.1968   -0.1730    0.0000 C   0  0  3  0  0  0  0  0  0  0  0  0
    5.2868   -0.6799    0.0000 C   0  0  2  0  0  0  0  0  0  0  0  0
    7.9288   -0.1730    0.0000 C   0  0  1  0  0  0  0  0  0  0  0  0
    5.2787   -1.7214    0.0000 C   0  0  3  0  0  0  0  0  0  0  0  0
    7.0789   -1.7145    0.0000 C   0  0  0  0  0  0  0  0  0  0  0  0
    6.1808   -2.2423    0.0000 C   0  0  0  0  0  0  0  0  0  0  0  0
    4.3433   -2.2712    0.0000 C   0  0  2  0  0  0  0  0  0  0  0  0
    7.9288    0.8270    0.0000 C   0  0  0  0  0  0  0  0  0  0  0  0
    4.3599   -0.1158    0.0000 C   0  0  0  0  0  0  0  0  0  0  0  0
    6.1968    0.8270    0.0000 C   0  0  0  0  0  0  0  0  0  0  0  0
    8.8228   -0.7077    0.0000 C   0  0  0  0  0  0  0  0  0  0  0  0
    8.8228    1.3617    0.0000 C   0  0  3  0  0  0  0  0  0  0  0  0
    9.7288    0.8478    0.0000 C   0  0  1  0  0  0  0  0  0  0  0  0
    7.7056   -1.4390    0.0000 C   0  0  0  0  0  0  0  0  0  0  0  0
    3.4037   -1.7287    0.0000 C   0  0  2  0  0  0  0  0  0  0  0  0
    5.2945    0.3201    0.0000 C   0  0  0  0  0  0  0  0  0  0  0  0
    3.4120   -0.6437    0.0000 C   0  0  2  0  0  0  0  0  0  0  0  0
    9.7288   -0.1938    0.0000 C   0  0  0  0  0  0  0  0  0  0  0  0
    7.0628    1.3270    0.0000 C   0  0  0  0  0  0  0  0  0  0  0  0
    8.2709   -1.1127    0.0000 C   0  0  0  0  0  0  0  0  0  0  0  0
    8.7977    2.4464    0.0000 C   0  0  0  0  0  0  0  0  0  0  0  0
   10.6726    1.3830    0.0000 C   0  0  0  0  0  0  0  0  0  0  0  0
    4.8466   -3.1353    0.0000 C   0  0  0  0  0  0  0  0  0  0  0  0
    3.8467   -3.1391    0.0000 C   0  0  0  0  0  0  0  0  0  0  0  0
   10.6726    2.4680    0.0000 C   0  0  0  0  0  0  0  0  0  0  0  0
   10.5987    0.3545    0.0000 C   0  0  0  0  0  0  0  0  0  0  0  0
    9.7288    3.0033    0.0000 C   0  0  0  0  0  0  0  0  0  0  0  0
    9.7173    4.0032    0.0000 C   0  0  0  0  0  0  0  0  0  0  0  0
    6.7337    0.1370    0.0000 H   0  0  0  0  0  0  0  0  0  0  0  0
    5.2811   -2.3414    0.0000 H   0  0  0  0  0  0  0  0  0  0  0  0
    7.2969   -2.2949    0.0000 H   0  0  0  0  0  0  0  0  0  0  0  0
    7.6880   -1.5990    0.0000 H   0  0  0  0  0  0  0  0  0  0  0  0
    5.7835   -2.7182    0.0000 H   0  0  0  0  0  0  0  0  0  0  0  0
    6.5818   -2.7152    0.0000 H   0  0  0  0  0  0  0  0  0  0  0  0
    4.7681    0.3509    0.0000 H   0  0  0  0  0  0  0  0  0  0  0  0
    3.9700    0.3663    0.0000 H   0  0  0  0  0  0  0  0  0  0  0  0
    5.9847    1.4096    0.0000 H   0  0  0  0  0  0  0  0  0  0  0  0
    5.5862    0.7193    0.0000 H   0  0  0  0  0  0  0  0  0  0  0  0
    8.4182   -1.1775    0.0000 H   0  0  0  0  0  0  0  0  0  0  0  0
    9.2164   -1.1867    0.0000 H   0  0  0  0  0  0  0  0  0  0  0  0
    9.3549    1.6799    0.0000 H   0  0  0  0  0  0  0  0  0  0  0  0
    7.2306   -1.8376    0.0000 H   0  0  0  0  0  0  0  0  0  0  0  0
    8.1041   -1.9140    0.0000 H   0  0  0  0  0  0  0  0  0  0  0  0
    8.1805   -1.0405    0.0000 H   0  0  0  0  0  0  0  0  0  0  0  0
    2.8686   -1.4156    0.0000 H   0  0  0  0  0  0  0  0  0  0  0  0
    5.9145    0.3153    0.0000 H   0  0  0  0  0  0  0  0  0  0  0  0
    5.2993    0.9401    0.0000 H   0  0  0  0  0  0  0  0  0  0  0  0
    4.6745    0.3249    0.0000 H   0  0  0  0  0  0  0  0  0  0  0  0
    2.8722   -0.9485    0.0000 H   0  0  0  0  0  0  0  0  0  0  0  0
    9.9379   -0.7775    0.0000 H   0  0  0  0  0  0  0  0  0  0  0  0
   10.3397   -0.0877    0.0000 H   0  0  0  0  0  0  0  0  0  0  0  0
    7.0628    1.9470    0.0000 H   0  0  0  0  0  0  0  0  0  0  0  0
    7.6884   -1.3248    0.0000 H   0  0  0  0  0  0  0  0  0  0  0  0
    8.4830   -1.6952    0.0000 H   0  0  0  0  0  0  0  0  0  0  0  0
    8.8535   -0.9006    0.0000 H   0  0  0  0  0  0  0  0  0  0  0  0
    8.5752    3.0251    0.0000 H   0  0  0  0  0  0  0  0  0  0  0  0
    8.1894    2.3262    0.0000 H   0  0  0  0  0  0  0  0  0  0  0  0
   10.8817    0.7994    0.0000 H   0  0  0  0  0  0  0  0  0  0  0  0
   11.2835    1.4891    0.0000 H   0  0  0  0  0  0  0  0  0  0  0  0
    4.3109   -3.4473    0.0000 H   0  0  0  0  0  0  0  0  0  0  0  0
    5.1587   -3.6710    0.0000 H   0  0  0  0  0  0  0  0  0  0  0  0
    5.3824   -2.8232    0.0000 H   0  0  0  0  0  0  0  0  0  0  0  0
    3.2267   -3.1415    0.0000 H   0  0  0  0  0  0  0  0  0  0  0  0
   11.2835    2.3620    0.0000 H   0  0  0  0  0  0  0  0  0  0  0  0
   10.8817    3.0517    0.0000 H   0  0  0  0  0  0  0  0  0  0  0  0
    2.0000   -1.9133    0.0000 H   0  0  0  0  0  0  0  0  0  0  0  0
    2.5590    0.4862    0.0000 H   0  0  0  0  0  0  0  0  0  0  0  0
   10.2506    4.3194    0.0000 H   0  0  0  0  0  0  0  0  0  0  0  0
    9.1768    4.3070    0.0000 H   0  0  0  0  0  0  0  0  0  0  0  0
   12.0001    0.5553    0.0000 H   0  0  0  0  0  0  0  0  0  0  0  0
 21  1  1  1  0  0  0
  1 72  1  0  0  0  0
 23  2  1  6  0  0  0
  2 73  1  0  0  0  0
  3 30  2  0  0  0  0
  4 32  1  0  0  0  0
  4 76  1  0  0  0  0
  5 32  2  0  0  0  0
  6  7  1  0  0  0  0
  6  9  1  0  0  0  0
  6 11  1  0  0  0  0
  6 20  1  1  0  0  0
  7  8  1  0  0  0  0
  7 16  1  0  0  0  0
  7 35  1  0  0  0  0
  8 10  1  0  0  0  0
  8 15  1  0  0  0  0
  8 22  1  1  0  0  0
  9 14  1  0  0  0  0
  9 17  1  0  0  0  0
  9 26  1  6  0  0  0
 10 12  1  0  0  0  0
 10 13  1  0  0  0  0
 10 36  1  0  0  0  0
 11 12  1  0  0  0  0
 11 37  1  0  0  0  0
 11 38  1  0  0  0  0
 12 39  1  0  0  0  0
 12 40  1  0  0  0  0
 13 21  1  0  0  0  0
 13 29  1  1  0  0  0
 13 30  1  0  0  0  0
 14 18  1  0  0  0  0
 14 25  2  0  0  0  0
 15 23  1  0  0  0  0
 15 41  1  0  0  0  0
 15 42  1  0  0  0  0
 16 25  1  0  0  0  0
 16 43  1  0  0  0  0
 16 44  1  0  0  0  0
 17 24  1  0  0  0  0
 17 45  1  0  0  0  0
 17 46  1  0  0  0  0
 18 19  1  0  0  0  0
 18 27  1  0  0  0  0
 18 47  1  0  0  0  0
 19 24  1  0  0  0  0
 19 28  1  0  0  0  0
 19 32  1  1  0  0  0
 20 48  1  0  0  0  0
 20 49  1  0  0  0  0
 20 50  1  0  0  0  0
 21 23  1  0  0  0  0
 21 51  1  0  0  0  0
 22 52  1  0  0  0  0
 22 53  1  0  0  0  0
 22 54  1  0  0  0  0
 23 55  1  0  0  0  0
 24 56  1  0  0  0  0
 24 57  1  0  0  0  0
 25 58  1  0  0  0  0
 26 59  1  0  0  0  0
 26 60  1  0  0  0  0
 26 61  1  0  0  0  0
 27 33  1  0  0  0  0
 27 62  1  0  0  0  0
 27 63  1  0  0  0  0
 28 31  1  0  0  0  0
 28 64  1  0  0  0  0
 28 65  1  0  0  0  0
 29 66  1  0  0  0  0
 29 67  1  0  0  0  0
 29 68  1  0  0  0  0
 30 69  1  0  0  0  0
 31 33  1  0  0  0  0
 31 70  1  0  0  0  0
 31 71  1  0  0  0  0
 33 34  2  0  0  0  0
 34 74  1  0  0  0  0
 34 75  1  0  0  0  0
M  END
> <PUBCHEM_COMPOUND_CID>
73775737

> <PUBCHEM_COMPOUND_CANONICALIZED>
1

> <PUBCHEM_CACTVS_COMPLEXITY>
970

> <PUBCHEM_CACTVS_HBOND_ACCEPTOR>
5

> <PUBCHEM_CACTVS_HBOND_DONOR>
3

> <PUBCHEM_CACTVS_ROTATABLE_BOND>
2

> <PUBCHEM_CACTVS_SUBSKEYS>
AAADcfB4OAAAAAAAAAAAAAAAAAAAAAAAAAAwYMGCAAAAAADAAAAAGgAACAAADxSggAICCAAAAgCIAijSiAAAAAAgAAAACAEAAAgBEBYAAQAAQAAEoAAJAAOKyPCPgAAAAAAAAADAAAYAADCAAAAAAAAAAA==

> <PUBCHEM_IUPAC_OPENEYE_NAME>
(4aS,6aS,6bR,9S,10R,11R,12aR)-9-formyl-10,11-dihydroxy-6a,6b,9,12a-tetramethyl-2-methylene-1,3,4,5,6,6a,7,8,8a,10,11,12,13,14b-tetradecahydropicene-4a-carboxylic acid

> <PUBCHEM_IUPAC_CAS_NAME>
(4aS,6aS,6bR,9S,10R,11R,12aR)-9-formyl-10,11-dihydroxy-6a,6b,9,12a-tetramethyl-2-methylene-1,3,4,5,6,6a,7,8,8a,10,11,12,13,14b-tetradecahydropicene-4a-carboxylic acid

> <PUBCHEM_IUPAC_NAME_MARKUP>
(4<I>a</I><I>S</I>,6<I>a</I><I>S</I>,6<I>b</I><I>R</I>,9<I>S</I>,10<I>R</I>,11<I>R</I>,12<I>a</I><I>R</I>)-9-formyl-10,11-dihydroxy-6<I>a</I>,6<I>b</I>,9,12<I>a</I>-tetramethyl-2-methylidene-1,3,4,5,6,6<I>a</I>,7,8,8<I>a</I>,10,11,12,13,14<I>b</I>-tetradecahydropicene-4<I>a</I>-carboxylic acid

> <PUBCHEM_IUPAC_NAME>
(4aS,6aS,6bR,9S,10R,11R,12aR)-9-formyl-10,11-dihydroxy-6a,6b,9,12a-tetramethyl-2-methylidene-1,3,4,5,6,6a,7,8,8a,10,11,12,13,14b-tetradecahydropicene-4a-carboxylic acid

> <PUBCHEM_IUPAC_SYSTEMATIC_NAME>
(4aS,6aS,6bR,9S,10R,11R,12aR)-9-methanoyl-6a,6b,9,12a-tetramethyl-2-methylidene-10,11-bis(oxidanyl)-1,3,4,5,6,6a,7,8,8a,10,11,12,13,14b-tetradecahydropicene-4a-carboxylic acid

> <PUBCHEM_IUPAC_TRADITIONAL_NAME>
(4aS,6aS,6bR,9S,10R,11R,12aR)-9-formyl-10,11-dihydroxy-6a,6b,9,12a-tetramethyl-2-methylene-1,3,4,5,6,6a,7,8,8a,10,11,12,13,14b-tetradecahydropicene-4a-carboxylic acid

> <PUBCHEM_IUPAC_INCHI>
InChI=1S/C29H42O5/c1-17-8-11-29(24(33)34)13-12-27(4)18(19(29)14-17)6-7-22-25(2)15-20(31)23(32)26(3,16-30)21(25)9-10-28(22,27)5/h6,16,19-23,31-32H,1,7-15H2,2-5H3,(H,33,34)/t19?,20-,21?,22?,23+,25+,26+,27-,28-,29+/m1/s1

> <PUBCHEM_IUPAC_INCHIKEY>
RMWWADWBPVXVTL-BOQNYFARSA-N

> <PUBCHEM_XLOGP3_AA>
4.4

> <PUBCHEM_EXACT_MASS>
470.30322444

> <PUBCHEM_MOLECULAR_FORMULA>
C29H42O5

> <PUBCHEM_MOLECULAR_WEIGHT>
470.6

> <PUBCHEM_OPENEYE_CAN_SMILES>
CC12CCC3C(C1CC=C4C2(CCC5(C4CC(=C)CC5)C(=O)O)C)(CC(C(C3(C)C=O)O)O)C

> <PUBCHEM_OPENEYE_ISO_SMILES>
C[C@@]12CCC3[C@@](C1CC=C4[C@]2(CC[C@@]5(C4CC(=C)CC5)C(=O)O)C)(C[C@H]([C@@H]([C@@]3(C)C=O)O)O)C

> <PUBCHEM_CACTVS_TPSA>
94.8

> <PUBCHEM_MONOISOTOPIC_WEIGHT>
470.30322444

> <PUBCHEM_TOTAL_CHARGE>
0

> <PUBCHEM_HEAVY_ATOM_COUNT>
34

> <PUBCHEM_ATOM_DEF_STEREO_COUNT>
7

> <PUBCHEM_ATOM_UDEF_STEREO_COUNT>
3

> <PUBCHEM_BOND_DEF_STEREO_COUNT>
0

> <PUBCHEM_BOND_UDEF_STEREO_COUNT>
0

> <PUBCHEM_ISOTOPIC_ATOM_COUNT>
0

> <PUBCHEM_COMPONENT_COUNT>
1

> <PUBCHEM_CACTVS_TAUTO_COUNT>
-1

> <PUBCHEM_COORDINATE_TYPE>
1
5
255

> <PUBCHEM_BONDANNOTATIONS>
21  1  5
10  12  3
13  29  5
18  27  3
19  32  5
23  2  6
6  20  5
7  16  3
8  22  5
9  26  6

$$$$
