 
  -OEChem-10192104162D

 33 33  0     0  0  0  0  0  0999 V2000
    4.2690   -2.5950    0.0000 O   0  0  0  0  0  0  0  0  0  0  0  0
    2.5369    0.4050    0.0000 O   0  0  0  0  0  0  0  0  0  0  0  0
    6.0010   -2.5950    0.0000 O   0  0  0  0  0  0  0  0  0  0  0  0
    3.4030    1.9050    0.0000 O   0  0  0  0  0  0  0  0  0  0  0  0
    5.1350   -1.0950    0.0000 C   0  0  0  0  0  0  0  0  0  0  0  0
    4.2690    0.4050    0.0000 C   0  0  0  0  0  0  0  0  0  0  0  0
    3.4030   -1.0950    0.0000 C   0  0  0  0  0  0  0  0  0  0  0  0
    4.2690   -1.5950    0.0000 C   0  0  0  0  0  0  0  0  0  0  0  0
    3.4030   -0.0950    0.0000 C   0  0  0  0  0  0  0  0  0  0  0  0
    5.1350   -0.0950    0.0000 C   0  0  0  0  0  0  0  0  0  0  0  0
    6.0010   -1.5950    0.0000 C   0  0  0  0  0  0  0  0  0  0  0  0
    4.2690    1.4050    0.0000 C   0  0  0  0  0  0  0  0  0  0  0  0
    6.8671   -1.0950    0.0000 C   0  0  0  0  0  0  0  0  0  0  0  0
    5.1350    1.9050    0.0000 C   0  0  0  0  0  0  0  0  0  0  0  0
    2.5369   -1.5950    0.0000 C   0  0  0  0  0  0  0  0  0  0  0  0
    7.7331   -1.5950    0.0000 C   0  0  0  0  0  0  0  0  0  0  0  0
    5.1350    2.9050    0.0000 C   0  0  0  0  0  0  0  0  0  0  0  0
    5.6720    0.2150    0.0000 H   0  0  0  0  0  0  0  0  0  0  0  0
    7.2656   -0.6201    0.0000 H   0  0  0  0  0  0  0  0  0  0  0  0
    6.4685   -0.6201    0.0000 H   0  0  0  0  0  0  0  0  0  0  0  0
    5.3471    1.3224    0.0000 H   0  0  0  0  0  0  0  0  0  0  0  0
    5.7456    2.0127    0.0000 H   0  0  0  0  0  0  0  0  0  0  0  0
    2.2269   -1.0581    0.0000 H   0  0  0  0  0  0  0  0  0  0  0  0
    2.0000   -1.9050    0.0000 H   0  0  0  0  0  0  0  0  0  0  0  0
    2.8469   -2.1319    0.0000 H   0  0  0  0  0  0  0  0  0  0  0  0
    7.4231   -2.1319    0.0000 H   0  0  0  0  0  0  0  0  0  0  0  0
    8.2700   -1.9050    0.0000 H   0  0  0  0  0  0  0  0  0  0  0  0
    8.0431   -1.0581    0.0000 H   0  0  0  0  0  0  0  0  0  0  0  0
    5.7550    2.9050    0.0000 H   0  0  0  0  0  0  0  0  0  0  0  0
    5.1350    3.5250    0.0000 H   0  0  0  0  0  0  0  0  0  0  0  0
    4.5150    2.9050    0.0000 H   0  0  0  0  0  0  0  0  0  0  0  0
    3.7320   -2.9050    0.0000 H   0  0  0  0  0  0  0  0  0  0  0  0
    2.0000    0.0950    0.0000 H   0  0  0  0  0  0  0  0  0  0  0  0
  1  8  1  0  0  0  0
  1 32  1  0  0  0  0
  2  9  1  0  0  0  0
  2 33  1  0  0  0  0
  3 11  2  0  0  0  0
  4 12  2  0  0  0  0
  5  8  2  0  0  0  0
  5 10  1  0  0  0  0
  5 11  1  0  0  0  0
  6  9  1  0  0  0  0
  6 10  2  0  0  0  0
  6 12  1  0  0  0  0
  7  8  1  0  0  0  0
  7  9  2  0  0  0  0
  7 15  1  0  0  0  0
 10 18  1  0  0  0  0
 11 13  1  0  0  0  0
 12 14  1  0  0  0  0
 13 16  1  0  0  0  0
 13 19  1  0  0  0  0
 13 20  1  0  0  0  0
 14 17  1  0  0  0  0
 14 21  1  0  0  0  0
 14 22  1  0  0  0  0
 15 23  1  0  0  0  0
 15 24  1  0  0  0  0
 15 25  1  0  0  0  0
 16 26  1  0  0  0  0
 16 27  1  0  0  0  0
 16 28  1  0  0  0  0
 17 29  1  0  0  0  0
 17 30  1  0  0  0  0
 17 31  1  0  0  0  0
M  END
> <PUBCHEM_COMPOUND_CID>
129835742

> <PUBCHEM_COMPOUND_CANONICALIZED>
1

> <PUBCHEM_CACTVS_COMPLEXITY>
272

> <PUBCHEM_CACTVS_HBOND_ACCEPTOR>
4

> <PUBCHEM_CACTVS_HBOND_DONOR>
2

> <PUBCHEM_CACTVS_ROTATABLE_BOND>
4

> <PUBCHEM_CACTVS_SUBSKEYS>
AAADceBwOAAAAAAAAAAAAAAAAAAAAAAAAAAwAAAAAAAAAAABAAAAGgAACAAADASAmAAyBoAAAgCIAqBSAAACAAAkIAAAiAEECMgIJzaCFBKAcUAl4BUImYeI7uTuIAACCAAIAABAAAQQABAAAAAAAAAAAA==

> <PUBCHEM_IUPAC_OPENEYE_NAME>
1-(2,4-dihydroxy-3-methyl-5-propanoyl-phenyl)propan-1-one

> <PUBCHEM_IUPAC_CAS_NAME>
1-[2,4-dihydroxy-3-methyl-5-(1-oxopropyl)phenyl]-1-propanone

> <PUBCHEM_IUPAC_NAME_MARKUP>
1-(2,4-dihydroxy-3-methyl-5-propanoylphenyl)propan-1-one

> <PUBCHEM_IUPAC_NAME>
1-(2,4-dihydroxy-3-methyl-5-propanoylphenyl)propan-1-one

> <PUBCHEM_IUPAC_SYSTEMATIC_NAME>
1-[3-methyl-2,4-bis(oxidanyl)-5-propanoyl-phenyl]propan-1-one

> <PUBCHEM_IUPAC_TRADITIONAL_NAME>
1-(2,4-dihydroxy-3-methyl-5-propionyl-phenyl)propan-1-one

> <PUBCHEM_IUPAC_INCHI>
InChI=1S/C13H16O4/c1-4-10(14)8-6-9(11(15)5-2)13(17)7(3)12(8)16/h6,16-17H,4-5H2,1-3H3

> <PUBCHEM_IUPAC_INCHIKEY>
XDEKCUJUSQQSPD-UHFFFAOYSA-N

> <PUBCHEM_XLOGP3_AA>
3

> <PUBCHEM_EXACT_MASS>
236.10485899

> <PUBCHEM_MOLECULAR_FORMULA>
C13H16O4

> <PUBCHEM_MOLECULAR_WEIGHT>
236.26

> <PUBCHEM_OPENEYE_CAN_SMILES>
CCC(=O)C1=CC(=C(C(=C1O)C)O)C(=O)CC

> <PUBCHEM_OPENEYE_ISO_SMILES>
CCC(=O)C1=CC(=C(C(=C1O)C)O)C(=O)CC

> <PUBCHEM_CACTVS_TPSA>
74.6

> <PUBCHEM_MONOISOTOPIC_WEIGHT>
236.10485899

> <PUBCHEM_TOTAL_CHARGE>
0

> <PUBCHEM_HEAVY_ATOM_COUNT>
17

> <PUBCHEM_ATOM_DEF_STEREO_COUNT>
0

> <PUBCHEM_ATOM_UDEF_STEREO_COUNT>
0

> <PUBCHEM_BOND_DEF_STEREO_COUNT>
0

> <PUBCHEM_BOND_UDEF_STEREO_COUNT>
0

> <PUBCHEM_ISOTOPIC_ATOM_COUNT>
0

> <PUBCHEM_COMPONENT_COUNT>
1

> <PUBCHEM_CACTVS_TAUTO_COUNT>
-1

> <PUBCHEM_COORDINATE_TYPE>
1
5
255

> <PUBCHEM_BONDANNOTATIONS>
5  10  8
5  8  8
6  10  8
6  9  8
7  8  8
7  9  8

$$$$
