 
  -OEChem-10192103302D

 65 64  0     1  0  0  0  0  0999 V2000
   13.7953    0.2500    0.0000 O   0  0  0  0  0  0  0  0  0  0  0  0
   11.1972   -0.2500    0.0000 O   0  0  0  0  0  0  0  0  0  0  0  0
   14.6613   -1.2500    0.0000 O   0  0  0  0  0  0  0  0  0  0  0  0
   10.3312    1.2500    0.0000 O   0  0  0  0  0  0  0  0  0  0  0  0
   22.4555    0.2500    0.0000 O   0  0  0  0  0  0  0  0  0  0  0  0
    2.5369   -0.2500    0.0000 O   0  0  0  0  0  0  0  0  0  0  0  0
   21.5895   -1.2500    0.0000 O   0  0  0  0  0  0  0  0  0  0  0  0
    3.4030    1.2500    0.0000 O   0  0  0  0  0  0  0  0  0  0  0  0
   18.1254   -0.2500    0.0000 C   0  0  0  0  0  0  0  0  0  0  0  0
   17.2594    0.2500    0.0000 C   0  0  0  0  0  0  0  0  0  0  0  0
    6.8671    0.2500    0.0000 C   0  0  0  0  0  0  0  0  0  0  0  0
    7.7331   -0.2500    0.0000 C   0  0  0  0  0  0  0  0  0  0  0  0
   18.9914    0.2500    0.0000 C   0  0  0  0  0  0  0  0  0  0  0  0
    6.0010   -0.2500    0.0000 C   0  0  0  0  0  0  0  0  0  0  0  0
   16.3933   -0.2500    0.0000 C   0  0  0  0  0  0  0  0  0  0  0  0
    8.5991    0.2500    0.0000 C   0  0  0  0  0  0  0  0  0  0  0  0
   19.8574   -0.2500    0.0000 C   0  0  0  0  0  0  0  0  0  0  0  0
    5.1350    0.2500    0.0000 C   0  0  0  0  0  0  0  0  0  0  0  0
   15.5273    0.2500    0.0000 C   0  0  0  0  0  0  0  0  0  0  0  0
    9.4651   -0.2500    0.0000 C   0  0  0  0  0  0  0  0  0  0  0  0
   20.7235    0.2500    0.0000 C   0  0  0  0  0  0  0  0  0  0  0  0
    4.2690   -0.2500    0.0000 C   0  0  0  0  0  0  0  0  0  0  0  0
   12.9292   -0.2500    0.0000 C   0  0  3  0  0  0  0  0  0  0  0  0
   14.6613   -0.2500    0.0000 C   0  0  0  0  0  0  0  0  0  0  0  0
   10.3312    0.2500    0.0000 C   0  0  0  0  0  0  0  0  0  0  0  0
   12.0632    0.2500    0.0000 C   0  0  0  0  0  0  0  0  0  0  0  0
   12.9292   -1.2500    0.0000 C   0  0  0  0  0  0  0  0  0  0  0  0
   21.5895   -0.2500    0.0000 C   0  0  0  0  0  0  0  0  0  0  0  0
    3.4030    0.2500    0.0000 C   0  0  0  0  0  0  0  0  0  0  0  0
   17.7269   -0.7249    0.0000 H   0  0  0  0  0  0  0  0  0  0  0  0
   18.5239   -0.7249    0.0000 H   0  0  0  0  0  0  0  0  0  0  0  0
   17.6579    0.7249    0.0000 H   0  0  0  0  0  0  0  0  0  0  0  0
   16.8608    0.7249    0.0000 H   0  0  0  0  0  0  0  0  0  0  0  0
    7.2656    0.7249    0.0000 H   0  0  0  0  0  0  0  0  0  0  0  0
    6.4685    0.7249    0.0000 H   0  0  0  0  0  0  0  0  0  0  0  0
    7.3346   -0.7249    0.0000 H   0  0  0  0  0  0  0  0  0  0  0  0
    8.1316   -0.7249    0.0000 H   0  0  0  0  0  0  0  0  0  0  0  0
   19.3899    0.7249    0.0000 H   0  0  0  0  0  0  0  0  0  0  0  0
   18.5929    0.7249    0.0000 H   0  0  0  0  0  0  0  0  0  0  0  0
    5.6025   -0.7249    0.0000 H   0  0  0  0  0  0  0  0  0  0  0  0
    6.3996   -0.7249    0.0000 H   0  0  0  0  0  0  0  0  0  0  0  0
   15.9948   -0.7249    0.0000 H   0  0  0  0  0  0  0  0  0  0  0  0
   16.7919   -0.7249    0.0000 H   0  0  0  0  0  0  0  0  0  0  0  0
    8.9976    0.7249    0.0000 H   0  0  0  0  0  0  0  0  0  0  0  0
    8.2006    0.7249    0.0000 H   0  0  0  0  0  0  0  0  0  0  0  0
   19.4589   -0.7249    0.0000 H   0  0  0  0  0  0  0  0  0  0  0  0
   20.2560   -0.7249    0.0000 H   0  0  0  0  0  0  0  0  0  0  0  0
    5.5335    0.7249    0.0000 H   0  0  0  0  0  0  0  0  0  0  0  0
    4.7365    0.7249    0.0000 H   0  0  0  0  0  0  0  0  0  0  0  0
   15.9258    0.7249    0.0000 H   0  0  0  0  0  0  0  0  0  0  0  0
   15.1288    0.7249    0.0000 H   0  0  0  0  0  0  0  0  0  0  0  0
    9.0666   -0.7249    0.0000 H   0  0  0  0  0  0  0  0  0  0  0  0
    9.8637   -0.7249    0.0000 H   0  0  0  0  0  0  0  0  0  0  0  0
   21.1220    0.7249    0.0000 H   0  0  0  0  0  0  0  0  0  0  0  0
   20.3249    0.7249    0.0000 H   0  0  0  0  0  0  0  0  0  0  0  0
    3.8705   -0.7249    0.0000 H   0  0  0  0  0  0  0  0  0  0  0  0
    4.6675   -0.7249    0.0000 H   0  0  0  0  0  0  0  0  0  0  0  0
   12.9292    0.3700    0.0000 H   0  0  0  0  0  0  0  0  0  0  0  0
   12.4617    0.7249    0.0000 H   0  0  0  0  0  0  0  0  0  0  0  0
   11.6647    0.7249    0.0000 H   0  0  0  0  0  0  0  0  0  0  0  0
   12.3092   -1.2500    0.0000 H   0  0  0  0  0  0  0  0  0  0  0  0
   12.9292   -1.8700    0.0000 H   0  0  0  0  0  0  0  0  0  0  0  0
   13.5492   -1.2500    0.0000 H   0  0  0  0  0  0  0  0  0  0  0  0
   22.9925   -0.0600    0.0000 H   0  0  0  0  0  0  0  0  0  0  0  0
    2.0000    0.0600    0.0000 H   0  0  0  0  0  0  0  0  0  0  0  0
  1 23  1  0  0  0  0
  1 24  1  0  0  0  0
  2 25  1  0  0  0  0
  2 26  1  0  0  0  0
  3 24  2  0  0  0  0
  4 25  2  0  0  0  0
  5 28  1  0  0  0  0
  5 64  1  0  0  0  0
  6 29  1  0  0  0  0
  6 65  1  0  0  0  0
  7 28  2  0  0  0  0
  8 29  2  0  0  0  0
  9 10  1  0  0  0  0
  9 13  1  0  0  0  0
  9 30  1  0  0  0  0
  9 31  1  0  0  0  0
 10 15  1  0  0  0  0
 10 32  1  0  0  0  0
 10 33  1  0  0  0  0
 11 12  1  0  0  0  0
 11 14  1  0  0  0  0
 11 34  1  0  0  0  0
 11 35  1  0  0  0  0
 12 16  1  0  0  0  0
 12 36  1  0  0  0  0
 12 37  1  0  0  0  0
 13 17  1  0  0  0  0
 13 38  1  0  0  0  0
 13 39  1  0  0  0  0
 14 18  1  0  0  0  0
 14 40  1  0  0  0  0
 14 41  1  0  0  0  0
 15 19  1  0  0  0  0
 15 42  1  0  0  0  0
 15 43  1  0  0  0  0
 16 20  1  0  0  0  0
 16 44  1  0  0  0  0
 16 45  1  0  0  0  0
 17 21  1  0  0  0  0
 17 46  1  0  0  0  0
 17 47  1  0  0  0  0
 18 22  1  0  0  0  0
 18 48  1  0  0  0  0
 18 49  1  0  0  0  0
 19 24  1  0  0  0  0
 19 50  1  0  0  0  0
 19 51  1  0  0  0  0
 20 25  1  0  0  0  0
 20 52  1  0  0  0  0
 20 53  1  0  0  0  0
 21 28  1  0  0  0  0
 21 54  1  0  0  0  0
 21 55  1  0  0  0  0
 22 29  1  0  0  0  0
 22 56  1  0  0  0  0
 22 57  1  0  0  0  0
 23 26  1  0  0  0  0
 23 27  1  0  0  0  0
 23 58  1  0  0  0  0
 26 59  1  0  0  0  0
 26 60  1  0  0  0  0
 27 61  1  0  0  0  0
 27 62  1  0  0  0  0
 27 63  1  0  0  0  0
M  END
> <PUBCHEM_COMPOUND_CID>
129138332

> <PUBCHEM_COMPOUND_CANONICALIZED>
1

> <PUBCHEM_CACTVS_COMPLEXITY>
489

> <PUBCHEM_CACTVS_HBOND_ACCEPTOR>
8

> <PUBCHEM_CACTVS_HBOND_DONOR>
2

> <PUBCHEM_CACTVS_ROTATABLE_BOND>
21

> <PUBCHEM_CACTVS_SUBSKEYS>
AAADcfB4PAAAAAAAAAAAAAAAAAAAAAAAAAAAAAAAAAAAAAAAAAAAGgAACAAACBSggAICCAAABgAIAACQCAAAAAAAAAAAAAEAAAABABIAAAACQAAEAAACAAGIyKCAAAAAAAAAAAAAAAAAAAAAAAAAAAAAAA==

> <PUBCHEM_IUPAC_OPENEYE_NAME>
9-[2-(8-carboxyoctanoyloxy)propoxy]-9-oxo-nonanoic acid

> <PUBCHEM_IUPAC_CAS_NAME>
9-[2-(8-carboxy-1-oxooctoxy)propoxy]-9-oxononanoic acid

> <PUBCHEM_IUPAC_NAME_MARKUP>
9-[2-(8-carboxyoctanoyloxy)propoxy]-9-oxononanoic acid

> <PUBCHEM_IUPAC_NAME>
9-[2-(8-carboxyoctanoyloxy)propoxy]-9-oxononanoic acid

> <PUBCHEM_IUPAC_SYSTEMATIC_NAME>
9-oxidanylidene-9-[2-(9-oxidanyl-9-oxidanylidene-nonanoyl)oxypropoxy]nonanoic acid

> <PUBCHEM_IUPAC_TRADITIONAL_NAME>
9-[2-(8-carboxyoctanoyloxy)propoxy]-9-keto-pelargonic acid

> <PUBCHEM_IUPAC_INCHI>
InChI=1S/C21H36O8/c1-17(29-21(27)15-11-7-3-5-9-13-19(24)25)16-28-20(26)14-10-6-2-4-8-12-18(22)23/h17H,2-16H2,1H3,(H,22,23)(H,24,25)

> <PUBCHEM_IUPAC_INCHIKEY>
DJDNVTWFRPIZAS-UHFFFAOYSA-N

> <PUBCHEM_XLOGP3_AA>
4

> <PUBCHEM_EXACT_MASS>
416.24101810

> <PUBCHEM_MOLECULAR_FORMULA>
C21H36O8

> <PUBCHEM_MOLECULAR_WEIGHT>
416.5

> <PUBCHEM_OPENEYE_CAN_SMILES>
CC(COC(=O)CCCCCCCC(=O)O)OC(=O)CCCCCCCC(=O)O

> <PUBCHEM_OPENEYE_ISO_SMILES>
CC(COC(=O)CCCCCCCC(=O)O)OC(=O)CCCCCCCC(=O)O

> <PUBCHEM_CACTVS_TPSA>
127

> <PUBCHEM_MONOISOTOPIC_WEIGHT>
416.24101810

> <PUBCHEM_TOTAL_CHARGE>
0

> <PUBCHEM_HEAVY_ATOM_COUNT>
29

> <PUBCHEM_ATOM_DEF_STEREO_COUNT>
0

> <PUBCHEM_ATOM_UDEF_STEREO_COUNT>
1

> <PUBCHEM_BOND_DEF_STEREO_COUNT>
0

> <PUBCHEM_BOND_UDEF_STEREO_COUNT>
0

> <PUBCHEM_ISOTOPIC_ATOM_COUNT>
0

> <PUBCHEM_COMPONENT_COUNT>
1

> <PUBCHEM_CACTVS_TAUTO_COUNT>
-1

> <PUBCHEM_COORDINATE_TYPE>
1
5
255

> <PUBCHEM_BONDANNOTATIONS>
23  27  3

$$$$
