 
  -OEChem-10192104122D

 75 74  0     1  0  0  0  0  0999 V2000
    8.9282   -2.7500    0.0000 O   0  0  0  0  0  0  0  0  0  0  0  0
   10.6603   -1.7500    0.0000 O   0  0  0  0  0  0  0  0  0  0  0  0
    7.1962   -2.7500    0.0000 O   0  0  0  0  0  0  0  0  0  0  0  0
   10.6603   -2.7500    0.0000 O   0  0  0  0  0  0  0  0  0  0  0  0
   11.5263   -0.2500    0.0000 O   0  0  0  0  0  0  0  0  0  0  0  0
   13.2583    5.7500    0.0000 O   0  0  0  0  0  0  0  0  0  0  0  0
   14.1244    4.2500    0.0000 O   0  0  0  0  0  0  0  0  0  0  0  0
   10.6603   -5.7500    0.0000 O   0  0  0  0  0  0  0  0  0  0  0  0
   14.1244   -1.7500    0.0000 O   0  0  0  0  0  0  0  0  0  0  0  0
   11.5263   -4.2500    0.0000 O   0  0  0  0  0  0  0  0  0  0  0  0
   13.2583   -0.2500    0.0000 O   0  0  0  0  0  0  0  0  0  0  0  0
    8.9282   -1.7500    0.0000 C   0  0  3  0  0  0  0  0  0  0  0  0
    9.7942   -1.2500    0.0000 C   0  0  3  0  0  0  0  0  0  0  0  0
    8.0622   -1.2500    0.0000 C   0  0  0  0  0  0  0  0  0  0  0  0
    9.7942   -0.2500    0.0000 C   0  0  0  0  0  0  0  0  0  0  0  0
    7.1962   -1.7500    0.0000 C   0  0  3  0  0  0  0  0  0  0  0  0
   10.6603    0.2500    0.0000 C   0  0  0  0  0  0  0  0  0  0  0  0
    6.3301   -1.2500    0.0000 C   0  0  0  0  0  0  0  0  0  0  0  0
   10.6603    1.2500    0.0000 C   0  0  0  0  0  0  0  0  0  0  0  0
    5.4641   -1.7500    0.0000 C   0  0  0  0  0  0  0  0  0  0  0  0
   11.5263    1.7500    0.0000 C   0  0  0  0  0  0  0  0  0  0  0  0
    4.5981   -1.2500    0.0000 C   0  0  0  0  0  0  0  0  0  0  0  0
   11.5263    2.7500    0.0000 C   0  0  0  0  0  0  0  0  0  0  0  0
    3.7320   -1.7500    0.0000 C   0  0  0  0  0  0  0  0  0  0  0  0
   12.3923    3.2500    0.0000 C   0  0  0  0  0  0  0  0  0  0  0  0
    2.8660   -1.2500    0.0000 C   0  0  0  0  0  0  0  0  0  0  0  0
    9.7942   -3.2500    0.0000 C   0  0  0  0  0  0  0  0  0  0  0  0
   11.5263   -1.2500    0.0000 C   0  0  0  0  0  0  0  0  0  0  0  0
   12.3923    4.2500    0.0000 C   0  0  0  0  0  0  0  0  0  0  0  0
    9.7942   -4.2500    0.0000 C   0  0  0  0  0  0  0  0  0  0  0  0
   12.3923   -1.7500    0.0000 C   0  0  0  0  0  0  0  0  0  0  0  0
    2.0000   -1.7500    0.0000 C   0  0  0  0  0  0  0  0  0  0  0  0
   13.2583    4.7500    0.0000 C   0  0  0  0  0  0  0  0  0  0  0  0
   10.6603   -4.7500    0.0000 C   0  0  0  0  0  0  0  0  0  0  0  0
   13.2583   -1.2500    0.0000 C   0  0  0  0  0  0  0  0  0  0  0  0
    9.4651   -2.0600    0.0000 H   0  0  0  0  0  0  0  0  0  0  0  0
   10.3312   -0.9400    0.0000 H   0  0  0  0  0  0  0  0  0  0  0  0
    8.4607   -0.7751    0.0000 H   0  0  0  0  0  0  0  0  0  0  0  0
    7.6636   -0.7751    0.0000 H   0  0  0  0  0  0  0  0  0  0  0  0
    9.5822    0.3326    0.0000 H   0  0  0  0  0  0  0  0  0  0  0  0
    9.1836   -0.3577    0.0000 H   0  0  0  0  0  0  0  0  0  0  0  0
    6.6592   -2.0600    0.0000 H   0  0  0  0  0  0  0  0  0  0  0  0
   10.8723   -0.3326    0.0000 H   0  0  0  0  0  0  0  0  0  0  0  0
   11.2708    0.3577    0.0000 H   0  0  0  0  0  0  0  0  0  0  0  0
    6.7287   -0.7751    0.0000 H   0  0  0  0  0  0  0  0  0  0  0  0
    5.9316   -0.7751    0.0000 H   0  0  0  0  0  0  0  0  0  0  0  0
   10.4482    1.8326    0.0000 H   0  0  0  0  0  0  0  0  0  0  0  0
   10.0497    1.1423    0.0000 H   0  0  0  0  0  0  0  0  0  0  0  0
    5.0656   -2.2250    0.0000 H   0  0  0  0  0  0  0  0  0  0  0  0
    5.8626   -2.2250    0.0000 H   0  0  0  0  0  0  0  0  0  0  0  0
   11.7383    1.1674    0.0000 H   0  0  0  0  0  0  0  0  0  0  0  0
   12.1369    1.8577    0.0000 H   0  0  0  0  0  0  0  0  0  0  0  0
    4.9966   -0.7751    0.0000 H   0  0  0  0  0  0  0  0  0  0  0  0
    4.1996   -0.7751    0.0000 H   0  0  0  0  0  0  0  0  0  0  0  0
   11.3142    3.3326    0.0000 H   0  0  0  0  0  0  0  0  0  0  0  0
   10.9157    2.6423    0.0000 H   0  0  0  0  0  0  0  0  0  0  0  0
    3.3335   -2.2250    0.0000 H   0  0  0  0  0  0  0  0  0  0  0  0
    4.1306   -2.2250    0.0000 H   0  0  0  0  0  0  0  0  0  0  0  0
    6.6592   -3.0600    0.0000 H   0  0  0  0  0  0  0  0  0  0  0  0
   12.6044    2.6674    0.0000 H   0  0  0  0  0  0  0  0  0  0  0  0
   13.0029    3.3577    0.0000 H   0  0  0  0  0  0  0  0  0  0  0  0
    3.2646   -0.7751    0.0000 H   0  0  0  0  0  0  0  0  0  0  0  0
    2.4675   -0.7751    0.0000 H   0  0  0  0  0  0  0  0  0  0  0  0
   12.1803    4.8326    0.0000 H   0  0  0  0  0  0  0  0  0  0  0  0
   11.7817    4.1423    0.0000 H   0  0  0  0  0  0  0  0  0  0  0  0
    9.1836   -4.1423    0.0000 H   0  0  0  0  0  0  0  0  0  0  0  0
    9.5822   -4.8326    0.0000 H   0  0  0  0  0  0  0  0  0  0  0  0
   11.9938   -2.2250    0.0000 H   0  0  0  0  0  0  0  0  0  0  0  0
   12.7908   -2.2250    0.0000 H   0  0  0  0  0  0  0  0  0  0  0  0
    1.6900   -1.2131    0.0000 H   0  0  0  0  0  0  0  0  0  0  0  0
    1.4631   -2.0600    0.0000 H   0  0  0  0  0  0  0  0  0  0  0  0
    2.3100   -2.2869    0.0000 H   0  0  0  0  0  0  0  0  0  0  0  0
   13.7953    6.0600    0.0000 H   0  0  0  0  0  0  0  0  0  0  0  0
   11.1972   -6.0600    0.0000 H   0  0  0  0  0  0  0  0  0  0  0  0
   14.6613   -1.4400    0.0000 H   0  0  0  0  0  0  0  0  0  0  0  0
  1 12  1  0  0  0  0
  1 27  1  0  0  0  0
  2 13  1  0  0  0  0
  2 28  1  0  0  0  0
  3 16  1  0  0  0  0
  3 59  1  0  0  0  0
  4 27  2  0  0  0  0
  5 28  2  0  0  0  0
  6 33  1  0  0  0  0
  6 73  1  0  0  0  0
  7 33  2  0  0  0  0
  8 34  1  0  0  0  0
  8 74  1  0  0  0  0
  9 35  1  0  0  0  0
  9 75  1  0  0  0  0
 10 34  2  0  0  0  0
 11 35  2  0  0  0  0
 12 13  1  0  0  0  0
 12 14  1  0  0  0  0
 12 36  1  0  0  0  0
 13 15  1  0  0  0  0
 13 37  1  0  0  0  0
 14 16  1  0  0  0  0
 14 38  1  0  0  0  0
 14 39  1  0  0  0  0
 15 17  1  0  0  0  0
 15 40  1  0  0  0  0
 15 41  1  0  0  0  0
 16 18  1  0  0  0  0
 16 42  1  0  0  0  0
 17 19  1  0  0  0  0
 17 43  1  0  0  0  0
 17 44  1  0  0  0  0
 18 20  1  0  0  0  0
 18 45  1  0  0  0  0
 18 46  1  0  0  0  0
 19 21  1  0  0  0  0
 19 47  1  0  0  0  0
 19 48  1  0  0  0  0
 20 22  1  0  0  0  0
 20 49  1  0  0  0  0
 20 50  1  0  0  0  0
 21 23  1  0  0  0  0
 21 51  1  0  0  0  0
 21 52  1  0  0  0  0
 22 24  1  0  0  0  0
 22 53  1  0  0  0  0
 22 54  1  0  0  0  0
 23 25  1  0  0  0  0
 23 55  1  0  0  0  0
 23 56  1  0  0  0  0
 24 26  1  0  0  0  0
 24 57  1  0  0  0  0
 24 58  1  0  0  0  0
 25 29  1  0  0  0  0
 25 60  1  0  0  0  0
 25 61  1  0  0  0  0
 26 32  1  0  0  0  0
 26 62  1  0  0  0  0
 26 63  1  0  0  0  0
 27 30  1  0  0  0  0
 28 31  1  0  0  0  0
 29 33  1  0  0  0  0
 29 64  1  0  0  0  0
 29 65  1  0  0  0  0
 30 34  1  0  0  0  0
 30 66  1  0  0  0  0
 30 67  1  0  0  0  0
 31 35  1  0  0  0  0
 31 68  1  0  0  0  0
 31 69  1  0  0  0  0
 32 70  1  0  0  0  0
 32 71  1  0  0  0  0
 32 72  1  0  0  0  0
M  END
> <PUBCHEM_COMPOUND_CID>
126652706

> <PUBCHEM_COMPOUND_CANONICALIZED>
1

> <PUBCHEM_CACTVS_COMPLEXITY>
662

> <PUBCHEM_CACTVS_HBOND_ACCEPTOR>
11

> <PUBCHEM_CACTVS_HBOND_DONOR>
4

> <PUBCHEM_CACTVS_ROTATABLE_BOND>
24

> <PUBCHEM_CACTVS_SUBSKEYS>
AAADcfB4PAAAAAAAAAAAAAAAAAAAAAAAAAAAAAAAAAAAAAAAAAAAGgAACAAACBSggAICCAAABgAIAACQCAAAAAAAAAAAAAEAAAABEBYIAAACQAAFIAACAAHIyKCAAAAAAAAAAAAAAAAAAAAAAAAAAAAAAA==

> <PUBCHEM_IUPAC_OPENEYE_NAME>
9,10-bis[(2-carboxyacetyl)oxy]-12-hydroxy-octadecanoic acid

> <PUBCHEM_IUPAC_CAS_NAME>
9,10-bis(2-carboxy-1-oxoethoxy)-12-hydroxyoctadecanoic acid

> <PUBCHEM_IUPAC_NAME_MARKUP>
9,10-bis[(2-carboxyacetyl)oxy]-12-hydroxyoctadecanoic acid

> <PUBCHEM_IUPAC_NAME>
9,10-bis[(2-carboxyacetyl)oxy]-12-hydroxyoctadecanoic acid

> <PUBCHEM_IUPAC_SYSTEMATIC_NAME>
12-oxidanyl-9,10-bis[(3-oxidanyl-3-oxidanylidene-propanoyl)oxy]octadecanoic acid

> <PUBCHEM_IUPAC_TRADITIONAL_NAME>
9,10-bis[(2-carboxyacetyl)oxy]-12-hydroxy-stearic acid

> <PUBCHEM_IUPAC_INCHI>
InChI=1S/C24H40O11/c1-2-3-4-8-11-17(25)14-19(35-24(33)16-22(30)31)18(34-23(32)15-21(28)29)12-9-6-5-7-10-13-20(26)27/h17-19,25H,2-16H2,1H3,(H,26,27)(H,28,29)(H,30,31)

> <PUBCHEM_IUPAC_INCHIKEY>
BLTAHVNSQSTBQV-UHFFFAOYSA-N

> <PUBCHEM_XLOGP3_AA>
4.3

> <PUBCHEM_EXACT_MASS>
504.25706209

> <PUBCHEM_MOLECULAR_FORMULA>
C24H40O11

> <PUBCHEM_MOLECULAR_WEIGHT>
504.6

> <PUBCHEM_OPENEYE_CAN_SMILES>
CCCCCCC(CC(C(CCCCCCCC(=O)O)OC(=O)CC(=O)O)OC(=O)CC(=O)O)O

> <PUBCHEM_OPENEYE_ISO_SMILES>
CCCCCCC(CC(C(CCCCCCCC(=O)O)OC(=O)CC(=O)O)OC(=O)CC(=O)O)O

> <PUBCHEM_CACTVS_TPSA>
185

> <PUBCHEM_MONOISOTOPIC_WEIGHT>
504.25706209

> <PUBCHEM_TOTAL_CHARGE>
0

> <PUBCHEM_HEAVY_ATOM_COUNT>
35

> <PUBCHEM_ATOM_DEF_STEREO_COUNT>
0

> <PUBCHEM_ATOM_UDEF_STEREO_COUNT>
3

> <PUBCHEM_BOND_DEF_STEREO_COUNT>
0

> <PUBCHEM_BOND_UDEF_STEREO_COUNT>
0

> <PUBCHEM_ISOTOPIC_ATOM_COUNT>
0

> <PUBCHEM_COMPONENT_COUNT>
1

> <PUBCHEM_CACTVS_TAUTO_COUNT>
-1

> <PUBCHEM_COORDINATE_TYPE>
1
5
255

> <PUBCHEM_BONDANNOTATIONS>
12  14  3
13  15  3
16  3  3

$$$$
