 
  -OEChem-10192104422D

 78 77  0     1  0  0  0  0  0999 V2000
    8.0622    1.5950    0.0000 O   0  0  0  0  0  0  0  0  0  0  0  0
    9.7942    2.5950    0.0000 O   0  0  0  0  0  0  0  0  0  0  0  0
    7.1962    0.0950    0.0000 O   0  0  0  0  0  0  0  0  0  0  0  0
   14.9904    1.5950    0.0000 O   0  0  0  0  0  0  0  0  0  0  0  0
   14.1244    0.0950    0.0000 O   0  0  0  0  0  0  0  0  0  0  0  0
    4.5981    1.5950    0.0000 O   0  0  0  0  0  0  0  0  0  0  0  0
    5.4641    0.0950    0.0000 O   0  0  0  0  0  0  0  0  0  0  0  0
   16.7224    1.5950    0.0000 O   0  0  0  0  0  0  0  0  0  0  0  0
   20.1865    1.5950    0.0000 O   0  0  0  0  0  0  0  0  0  0  0  0
   17.5885    0.0950    0.0000 O   0  0  0  0  0  0  0  0  0  0  0  0
   19.3205    0.0950    0.0000 O   0  0  0  0  0  0  0  0  0  0  0  0
    8.9282    1.0950    0.0000 C   0  0  3  0  0  0  0  0  0  0  0  0
    9.7942    1.5950    0.0000 C   0  0  3  0  0  0  0  0  0  0  0  0
    8.9282    0.0950    0.0000 C   0  0  0  0  0  0  0  0  0  0  0  0
   10.6603    1.0950    0.0000 C   0  0  0  0  0  0  0  0  0  0  0  0
    8.0622   -0.4050    0.0000 C   0  0  0  0  0  0  0  0  0  0  0  0
   11.5263    1.5950    0.0000 C   0  0  0  0  0  0  0  0  0  0  0  0
    8.0622   -1.4050    0.0000 C   0  0  0  0  0  0  0  0  0  0  0  0
   12.3923    1.0950    0.0000 C   0  0  0  0  0  0  0  0  0  0  0  0
    7.1962   -1.9050    0.0000 C   0  0  0  0  0  0  0  0  0  0  0  0
   13.2583    1.5950    0.0000 C   0  0  0  0  0  0  0  0  0  0  0  0
    7.1962    1.0950    0.0000 C   0  0  0  0  0  0  0  0  0  0  0  0
    7.1962   -2.9050    0.0000 C   0  0  0  0  0  0  0  0  0  0  0  0
   14.1244    1.0950    0.0000 C   0  0  0  0  0  0  0  0  0  0  0  0
    6.3301    1.5950    0.0000 C   0  0  0  0  0  0  0  0  0  0  0  0
    5.4641    1.0950    0.0000 C   0  0  0  0  0  0  0  0  0  0  0  0
   15.8564    1.0950    0.0000 C   0  0  0  0  0  0  0  0  0  0  0  0
    3.7320    1.0950    0.0000 C   0  0  0  0  0  0  0  0  0  0  0  0
    2.8660    1.5950    0.0000 C   0  0  0  0  0  0  0  0  0  0  0  0
    2.0000    1.0950    0.0000 C   0  0  0  0  0  0  0  0  0  0  0  0
   17.5885    1.0950    0.0000 C   0  0  0  0  0  0  0  0  0  0  0  0
   18.4545    1.5950    0.0000 C   0  0  0  0  0  0  0  0  0  0  0  0
   19.3205    1.0950    0.0000 C   0  0  0  0  0  0  0  0  0  0  0  0
   21.0526    1.0950    0.0000 C   0  0  0  0  0  0  0  0  0  0  0  0
   21.9186    1.5950    0.0000 C   0  0  0  0  0  0  0  0  0  0  0  0
   22.7846    1.0950    0.0000 C   0  0  0  0  0  0  0  0  0  0  0  0
    8.9282    1.7150    0.0000 H   0  0  0  0  0  0  0  0  0  0  0  0
   10.3312    1.9050    0.0000 H   0  0  0  0  0  0  0  0  0  0  0  0
    9.1403   -0.4876    0.0000 H   0  0  0  0  0  0  0  0  0  0  0  0
    9.5388    0.2027    0.0000 H   0  0  0  0  0  0  0  0  0  0  0  0
   10.2617    0.6201    0.0000 H   0  0  0  0  0  0  0  0  0  0  0  0
   11.0588    0.6201    0.0000 H   0  0  0  0  0  0  0  0  0  0  0  0
    7.8501    0.1776    0.0000 H   0  0  0  0  0  0  0  0  0  0  0  0
    7.4516   -0.5127    0.0000 H   0  0  0  0  0  0  0  0  0  0  0  0
   11.9248    2.0700    0.0000 H   0  0  0  0  0  0  0  0  0  0  0  0
   11.1278    2.0700    0.0000 H   0  0  0  0  0  0  0  0  0  0  0  0
    8.2742   -1.9876    0.0000 H   0  0  0  0  0  0  0  0  0  0  0  0
    8.6728   -1.2973    0.0000 H   0  0  0  0  0  0  0  0  0  0  0  0
   11.9938    0.6201    0.0000 H   0  0  0  0  0  0  0  0  0  0  0  0
   12.7908    0.6201    0.0000 H   0  0  0  0  0  0  0  0  0  0  0  0
    6.9841   -1.3224    0.0000 H   0  0  0  0  0  0  0  0  0  0  0  0
    6.5856   -2.0127    0.0000 H   0  0  0  0  0  0  0  0  0  0  0  0
   10.3312    2.9050    0.0000 H   0  0  0  0  0  0  0  0  0  0  0  0
   13.6569    2.0700    0.0000 H   0  0  0  0  0  0  0  0  0  0  0  0
   12.8598    2.0700    0.0000 H   0  0  0  0  0  0  0  0  0  0  0  0
    6.5762   -2.9050    0.0000 H   0  0  0  0  0  0  0  0  0  0  0  0
    7.1962   -3.5250    0.0000 H   0  0  0  0  0  0  0  0  0  0  0  0
    7.8162   -2.9050    0.0000 H   0  0  0  0  0  0  0  0  0  0  0  0
    6.7287    2.0700    0.0000 H   0  0  0  0  0  0  0  0  0  0  0  0
    5.9316    2.0700    0.0000 H   0  0  0  0  0  0  0  0  0  0  0  0
   15.4579    0.6201    0.0000 H   0  0  0  0  0  0  0  0  0  0  0  0
   16.2549    0.6201    0.0000 H   0  0  0  0  0  0  0  0  0  0  0  0
    3.3335    0.6201    0.0000 H   0  0  0  0  0  0  0  0  0  0  0  0
    4.1306    0.6201    0.0000 H   0  0  0  0  0  0  0  0  0  0  0  0
    3.2646    2.0700    0.0000 H   0  0  0  0  0  0  0  0  0  0  0  0
    2.4675    2.0700    0.0000 H   0  0  0  0  0  0  0  0  0  0  0  0
    1.6900    1.6319    0.0000 H   0  0  0  0  0  0  0  0  0  0  0  0
    1.4631    0.7850    0.0000 H   0  0  0  0  0  0  0  0  0  0  0  0
    2.3100    0.5581    0.0000 H   0  0  0  0  0  0  0  0  0  0  0  0
   18.8530    2.0700    0.0000 H   0  0  0  0  0  0  0  0  0  0  0  0
   18.0560    2.0700    0.0000 H   0  0  0  0  0  0  0  0  0  0  0  0
   20.6540    0.6201    0.0000 H   0  0  0  0  0  0  0  0  0  0  0  0
   21.4511    0.6201    0.0000 H   0  0  0  0  0  0  0  0  0  0  0  0
   22.3171    2.0700    0.0000 H   0  0  0  0  0  0  0  0  0  0  0  0
   21.5201    2.0700    0.0000 H   0  0  0  0  0  0  0  0  0  0  0  0
   22.4746    0.5581    0.0000 H   0  0  0  0  0  0  0  0  0  0  0  0
   23.3215    0.7850    0.0000 H   0  0  0  0  0  0  0  0  0  0  0  0
   23.0946    1.6319    0.0000 H   0  0  0  0  0  0  0  0  0  0  0  0
  1 12  1  0  0  0  0
  1 22  1  0  0  0  0
  2 13  1  0  0  0  0
  2 53  1  0  0  0  0
  3 22  2  0  0  0  0
  4 24  1  0  0  0  0
  4 27  1  0  0  0  0
  5 24  2  0  0  0  0
  6 26  1  0  0  0  0
  6 28  1  0  0  0  0
  7 26  2  0  0  0  0
  8 27  1  0  0  0  0
  8 31  1  0  0  0  0
  9 33  1  0  0  0  0
  9 34  1  0  0  0  0
 10 31  2  0  0  0  0
 11 33  2  0  0  0  0
 12 13  1  0  0  0  0
 12 14  1  0  0  0  0
 12 37  1  0  0  0  0
 13 15  1  0  0  0  0
 13 38  1  0  0  0  0
 14 16  1  0  0  0  0
 14 39  1  0  0  0  0
 14 40  1  0  0  0  0
 15 17  1  0  0  0  0
 15 41  1  0  0  0  0
 15 42  1  0  0  0  0
 16 18  1  0  0  0  0
 16 43  1  0  0  0  0
 16 44  1  0  0  0  0
 17 19  1  0  0  0  0
 17 45  1  0  0  0  0
 17 46  1  0  0  0  0
 18 20  1  0  0  0  0
 18 47  1  0  0  0  0
 18 48  1  0  0  0  0
 19 21  1  0  0  0  0
 19 49  1  0  0  0  0
 19 50  1  0  0  0  0
 20 23  1  0  0  0  0
 20 51  1  0  0  0  0
 20 52  1  0  0  0  0
 21 24  1  0  0  0  0
 21 54  1  0  0  0  0
 21 55  1  0  0  0  0
 22 25  1  0  0  0  0
 23 56  1  0  0  0  0
 23 57  1  0  0  0  0
 23 58  1  0  0  0  0
 25 26  1  0  0  0  0
 25 59  1  0  0  0  0
 25 60  1  0  0  0  0
 27 61  1  0  0  0  0
 27 62  1  0  0  0  0
 28 29  1  0  0  0  0
 28 63  1  0  0  0  0
 28 64  1  0  0  0  0
 29 30  1  0  0  0  0
 29 65  1  0  0  0  0
 29 66  1  0  0  0  0
 30 67  1  0  0  0  0
 30 68  1  0  0  0  0
 30 69  1  0  0  0  0
 31 32  1  0  0  0  0
 32 33  1  0  0  0  0
 32 70  1  0  0  0  0
 32 71  1  0  0  0  0
 34 35  1  0  0  0  0
 34 72  1  0  0  0  0
 34 73  1  0  0  0  0
 35 36  1  0  0  0  0
 35 74  1  0  0  0  0
 35 75  1  0  0  0  0
 36 76  1  0  0  0  0
 36 77  1  0  0  0  0
 36 78  1  0  0  0  0
M  END
> <PUBCHEM_COMPOUND_CID>
118013041

> <PUBCHEM_COMPOUND_CANONICALIZED>
1

> <PUBCHEM_CACTVS_COMPLEXITY>
662

> <PUBCHEM_CACTVS_HBOND_ACCEPTOR>
11

> <PUBCHEM_CACTVS_HBOND_DONOR>
1

> <PUBCHEM_CACTVS_ROTATABLE_BOND>
26

> <PUBCHEM_CACTVS_SUBSKEYS>
AAADcfB4PAAAAAAAAAAAAAAAAAAAAAAAAAAAAAAAAAAAAAAAAAAAGgAACAAACBSggAMCCAAABgAIAACQCAAAAAAAAAAAAAEAAAAREBYIAAAiQAAFIAAHAAGIyKCAAAAAAAAAAAAAAAAAAAAAAAAAAAAAAA==

> <PUBCHEM_IUPAC_OPENEYE_NAME>
O3-[[6-hydroxy-7-(3-oxo-3-propoxy-propanoyl)oxy-dodecanoyl]oxymethyl] O1-propyl propanedioate

> <PUBCHEM_IUPAC_CAS_NAME>
propanedioic acid O3-[[7-(1,3-dioxo-3-propoxypropoxy)-6-hydroxy-1-oxododecoxy]methyl] ester O1-propyl ester

> <PUBCHEM_IUPAC_NAME_MARKUP>
3-<I>O</I>-[[6-hydroxy-7-(3-oxo-3-propoxypropanoyl)oxydodecanoyl]oxymethyl] 1-<I>O</I>-propyl propanedioate

> <PUBCHEM_IUPAC_NAME>
3-O-[[6-hydroxy-7-(3-oxo-3-propoxypropanoyl)oxydodecanoyl]oxymethyl] 1-O-propyl propanedioate

> <PUBCHEM_IUPAC_SYSTEMATIC_NAME>
O3-[[6-oxidanyl-7-(3-oxidanylidene-3-propoxy-propanoyl)oxy-dodecanoyl]oxymethyl] O1-propyl propanedioate

> <PUBCHEM_IUPAC_TRADITIONAL_NAME>
malonic acid O3-[[6-hydroxy-7-(3-keto-3-propoxy-propanoyl)oxy-dodecanoyl]oxymethyl] ester O1-propyl ester

> <PUBCHEM_IUPAC_INCHI>
InChI=1S/C25H42O11/c1-4-7-8-12-20(36-25(31)17-23(29)33-15-6-3)19(26)11-9-10-13-21(27)34-18-35-24(30)16-22(28)32-14-5-2/h19-20,26H,4-18H2,1-3H3

> <PUBCHEM_IUPAC_INCHIKEY>
DTFZQCNJXZYFHG-UHFFFAOYSA-N

> <PUBCHEM_XLOGP3_AA>
4.6

> <PUBCHEM_EXACT_MASS>
518.27271215

> <PUBCHEM_MOLECULAR_FORMULA>
C25H42O11

> <PUBCHEM_MOLECULAR_WEIGHT>
518.6

> <PUBCHEM_OPENEYE_CAN_SMILES>
CCCCCC(C(CCCCC(=O)OCOC(=O)CC(=O)OCCC)O)OC(=O)CC(=O)OCCC

> <PUBCHEM_OPENEYE_ISO_SMILES>
CCCCCC(C(CCCCC(=O)OCOC(=O)CC(=O)OCCC)O)OC(=O)CC(=O)OCCC

> <PUBCHEM_CACTVS_TPSA>
152

> <PUBCHEM_MONOISOTOPIC_WEIGHT>
518.27271215

> <PUBCHEM_TOTAL_CHARGE>
0

> <PUBCHEM_HEAVY_ATOM_COUNT>
36

> <PUBCHEM_ATOM_DEF_STEREO_COUNT>
0

> <PUBCHEM_ATOM_UDEF_STEREO_COUNT>
2

> <PUBCHEM_BOND_DEF_STEREO_COUNT>
0

> <PUBCHEM_BOND_UDEF_STEREO_COUNT>
0

> <PUBCHEM_ISOTOPIC_ATOM_COUNT>
0

> <PUBCHEM_COMPONENT_COUNT>
1

> <PUBCHEM_CACTVS_TAUTO_COUNT>
-1

> <PUBCHEM_COORDINATE_TYPE>
1
5
255

> <PUBCHEM_BONDANNOTATIONS>
12  14  3
13  2  3

$$$$
