 
  -OEChem-10192104272D

 48 50  0     0  0  0  0  0  0999 V2000
    6.0290   -0.2726    0.0000 O   0  0  0  0  0  0  0  0  0  0  0  0
    4.2690    2.7621    0.0000 O   0  0  0  0  0  0  0  0  0  0  0  0
    2.5369   -0.2379    0.0000 O   0  0  0  0  0  0  0  0  0  0  0  0
   10.3991    0.2279    0.0000 O   0  0  0  0  0  0  0  0  0  0  0  0
    8.6555   -2.7654    0.0000 O   0  0  0  0  0  0  0  0  0  0  0  0
   10.3914   -1.7721    0.0000 O   0  0  0  0  0  0  0  0  0  0  0  0
    2.5369    1.7621    0.0000 O   0  0  0  0  0  0  0  0  0  0  0  0
    6.0174    2.7967    0.0000 O   0  0  0  0  0  0  0  0  0  0  0  0
    5.1350    1.2621    0.0000 C   0  0  0  0  0  0  0  0  0  0  0  0
    5.1350    0.2621    0.0000 C   0  0  0  0  0  0  0  0  0  0  0  0
    6.9350    0.2412    0.0000 C   0  0  0  0  0  0  0  0  0  0  0  0
    7.7991   -0.2621    0.0000 C   0  0  0  0  0  0  0  0  0  0  0  0
    4.2690    1.7621    0.0000 C   0  0  0  0  0  0  0  0  0  0  0  0
    6.0290    1.7967    0.0000 C   0  0  0  0  0  0  0  0  0  0  0  0
    6.9350    1.2829    0.0000 C   0  0  0  0  0  0  0  0  0  0  0  0
    4.2690   -0.2379    0.0000 C   0  0  0  0  0  0  0  0  0  0  0  0
    3.4030    1.2621    0.0000 C   0  0  0  0  0  0  0  0  0  0  0  0
    3.4030    0.2621    0.0000 C   0  0  0  0  0  0  0  0  0  0  0  0
    7.7953   -1.2621    0.0000 C   0  0  0  0  0  0  0  0  0  0  0  0
    8.6671    0.2346    0.0000 C   0  0  0  0  0  0  0  0  0  0  0  0
    9.5312   -0.2688    0.0000 C   0  0  0  0  0  0  0  0  0  0  0  0
    8.6594   -1.7654    0.0000 C   0  0  0  0  0  0  0  0  0  0  0  0
    9.5273   -1.2688    0.0000 C   0  0  0  0  0  0  0  0  0  0  0  0
    3.4030    3.2621    0.0000 C   0  0  0  0  0  0  0  0  0  0  0  0
    2.5369   -1.2379    0.0000 C   0  0  0  0  0  0  0  0  0  0  0  0
   10.4030    1.2279    0.0000 C   0  0  0  0  0  0  0  0  0  0  0  0
    7.7876   -3.2621    0.0000 C   0  0  0  0  0  0  0  0  0  0  0  0
   11.2593   -1.2754    0.0000 C   0  0  0  0  0  0  0  0  0  0  0  0
    7.4708    1.5950    0.0000 H   0  0  0  0  0  0  0  0  0  0  0  0
    4.2690   -0.8579    0.0000 H   0  0  0  0  0  0  0  0  0  0  0  0
    7.2571   -1.5700    0.0000 H   0  0  0  0  0  0  0  0  0  0  0  0
    8.6694    0.8546    0.0000 H   0  0  0  0  0  0  0  0  0  0  0  0
    2.0000    1.4521    0.0000 H   0  0  0  0  0  0  0  0  0  0  0  0
    3.7130    3.7990    0.0000 H   0  0  0  0  0  0  0  0  0  0  0  0
    2.8660    3.5721    0.0000 H   0  0  0  0  0  0  0  0  0  0  0  0
    3.0930    2.7251    0.0000 H   0  0  0  0  0  0  0  0  0  0  0  0
    1.9169   -1.2379    0.0000 H   0  0  0  0  0  0  0  0  0  0  0  0
    2.5369   -1.8579    0.0000 H   0  0  0  0  0  0  0  0  0  0  0  0
    3.1569   -1.2379    0.0000 H   0  0  0  0  0  0  0  0  0  0  0  0
   11.0229    1.2255    0.0000 H   0  0  0  0  0  0  0  0  0  0  0  0
   10.4053    1.8479    0.0000 H   0  0  0  0  0  0  0  0  0  0  0  0
    9.7830    1.2303    0.0000 H   0  0  0  0  0  0  0  0  0  0  0  0
    7.4796   -2.7239    0.0000 H   0  0  0  0  0  0  0  0  0  0  0  0
    7.2494   -3.5700    0.0000 H   0  0  0  0  0  0  0  0  0  0  0  0
    8.0955   -3.8002    0.0000 H   0  0  0  0  0  0  0  0  0  0  0  0
   11.5673   -1.8136    0.0000 H   0  0  0  0  0  0  0  0  0  0  0  0
   11.7975   -0.9675    0.0000 H   0  0  0  0  0  0  0  0  0  0  0  0
   10.9514   -0.7373    0.0000 H   0  0  0  0  0  0  0  0  0  0  0  0
  1 10  1  0  0  0  0
  1 11  1  0  0  0  0
  2 13  1  0  0  0  0
  2 24  1  0  0  0  0
  3 18  1  0  0  0  0
  3 25  1  0  0  0  0
  4 21  1  0  0  0  0
  4 26  1  0  0  0  0
  5 22  1  0  0  0  0
  5 27  1  0  0  0  0
  6 23  1  0  0  0  0
  6 28  1  0  0  0  0
  7 17  1  0  0  0  0
  7 33  1  0  0  0  0
  8 14  2  0  0  0  0
  9 10  1  0  0  0  0
  9 13  2  0  0  0  0
  9 14  1  0  0  0  0
 10 16  2  0  0  0  0
 11 12  1  0  0  0  0
 11 15  2  0  0  0  0
 12 19  2  0  0  0  0
 12 20  1  0  0  0  0
 13 17  1  0  0  0  0
 14 15  1  0  0  0  0
 15 29  1  0  0  0  0
 16 18  1  0  0  0  0
 16 30  1  0  0  0  0
 17 18  2  0  0  0  0
 19 22  1  0  0  0  0
 19 31  1  0  0  0  0
 20 21  2  0  0  0  0
 20 32  1  0  0  0  0
 21 23  1  0  0  0  0
 22 23  2  0  0  0  0
 24 34  1  0  0  0  0
 24 35  1  0  0  0  0
 24 36  1  0  0  0  0
 25 37  1  0  0  0  0
 25 38  1  0  0  0  0
 25 39  1  0  0  0  0
 26 40  1  0  0  0  0
 26 41  1  0  0  0  0
 26 42  1  0  0  0  0
 27 43  1  0  0  0  0
 27 44  1  0  0  0  0
 27 45  1  0  0  0  0
 28 46  1  0  0  0  0
 28 47  1  0  0  0  0
 28 48  1  0  0  0  0
M  END
> <PUBCHEM_COMPOUND_CID>
12425863

> <PUBCHEM_COMPOUND_CANONICALIZED>
1

> <PUBCHEM_CACTVS_COMPLEXITY>
565

> <PUBCHEM_CACTVS_HBOND_ACCEPTOR>
8

> <PUBCHEM_CACTVS_HBOND_DONOR>
1

> <PUBCHEM_CACTVS_ROTATABLE_BOND>
6

> <PUBCHEM_CACTVS_SUBSKEYS>
AAADceB4PAAAAAAAAAAAAAAAAAAAAAAAAAAwYIAAAAAAAACBQAAAGgAACAAADASAmAIyBoAABgCIAqBSAAACCAAkIAAAiAEGiMgNJzaGNRqCeWOl4BULuQfK7LzOIQABCAAIQABCAAIQABCAAAAAAAAAAA==

> <PUBCHEM_IUPAC_OPENEYE_NAME>
6-hydroxy-5,7-dimethoxy-2-(3,4,5-trimethoxyphenyl)chromen-4-one

> <PUBCHEM_IUPAC_CAS_NAME>
6-hydroxy-5,7-dimethoxy-2-(3,4,5-trimethoxyphenyl)-1-benzopyran-4-one

> <PUBCHEM_IUPAC_NAME_MARKUP>
6-hydroxy-5,7-dimethoxy-2-(3,4,5-trimethoxyphenyl)chromen-4-one

> <PUBCHEM_IUPAC_NAME>
6-hydroxy-5,7-dimethoxy-2-(3,4,5-trimethoxyphenyl)chromen-4-one

> <PUBCHEM_IUPAC_SYSTEMATIC_NAME>
5,7-dimethoxy-6-oxidanyl-2-(3,4,5-trimethoxyphenyl)chromen-4-one

> <PUBCHEM_IUPAC_TRADITIONAL_NAME>
6-hydroxy-5,7-dimethoxy-2-(3,4,5-trimethoxyphenyl)chromone

> <PUBCHEM_IUPAC_INCHI>
InChI=1S/C20H20O8/c1-23-14-9-13-17(20(27-5)18(14)22)11(21)8-12(28-13)10-6-15(24-2)19(26-4)16(7-10)25-3/h6-9,22H,1-5H3

> <PUBCHEM_IUPAC_INCHIKEY>
LVIWBUXZDQVCBA-UHFFFAOYSA-N

> <PUBCHEM_XLOGP3_AA>
2.7

> <PUBCHEM_EXACT_MASS>
388.11581759

> <PUBCHEM_MOLECULAR_FORMULA>
C20H20O8

> <PUBCHEM_MOLECULAR_WEIGHT>
388.4

> <PUBCHEM_OPENEYE_CAN_SMILES>
COC1=CC(=CC(=C1OC)OC)C2=CC(=O)C3=C(C(=C(C=C3O2)OC)O)OC

> <PUBCHEM_OPENEYE_ISO_SMILES>
COC1=CC(=CC(=C1OC)OC)C2=CC(=O)C3=C(C(=C(C=C3O2)OC)O)OC

> <PUBCHEM_CACTVS_TPSA>
92.7

> <PUBCHEM_MONOISOTOPIC_WEIGHT>
388.11581759

> <PUBCHEM_TOTAL_CHARGE>
0

> <PUBCHEM_HEAVY_ATOM_COUNT>
28

> <PUBCHEM_ATOM_DEF_STEREO_COUNT>
0

> <PUBCHEM_ATOM_UDEF_STEREO_COUNT>
0

> <PUBCHEM_BOND_DEF_STEREO_COUNT>
0

> <PUBCHEM_BOND_UDEF_STEREO_COUNT>
0

> <PUBCHEM_ISOTOPIC_ATOM_COUNT>
0

> <PUBCHEM_COMPONENT_COUNT>
1

> <PUBCHEM_CACTVS_TAUTO_COUNT>
-1

> <PUBCHEM_COORDINATE_TYPE>
1
5
255

> <PUBCHEM_BONDANNOTATIONS>
1  10  8
1  11  8
10  16  8
11  15  8
12  19  8
12  20  8
13  17  8
14  15  8
16  18  8
17  18  8
19  22  8
20  21  8
21  23  8
22  23  8
9  10  8
9  13  8
9  14  8

$$$$
