 
  -OEChem-10192103352D

 40 42  0     1  0  0  0  0  0999 V2000
    6.0682   -0.1754    0.0000 O   0  0  0  0  0  0  0  0  0  0  0  0
    6.0682    2.8246    0.0000 O   0  0  0  0  0  0  0  0  0  0  0  0
   10.3984    0.3246    0.0000 O   0  0  0  0  0  0  0  0  0  0  0  0
    8.6663   -2.6754    0.0000 O   0  0  0  0  0  0  0  0  0  0  0  0
    4.3198    2.8592    0.0000 O   0  0  0  0  0  0  0  0  0  0  0  0
   10.3984   -1.6754    0.0000 O   0  0  0  0  0  0  0  0  0  0  0  0
    2.5381   -0.1995    0.0000 O   0  0  0  0  0  0  0  0  0  0  0  0
    6.9343    0.3246    0.0000 C   0  0  3  0  0  0  0  0  0  0  0  0
    6.9343    1.3246    0.0000 C   0  0  0  0  0  0  0  0  0  0  0  0
    7.8003   -0.1754    0.0000 C   0  0  0  0  0  0  0  0  0  0  0  0
    6.0682    1.8246    0.0000 C   0  0  0  0  0  0  0  0  0  0  0  0
    5.2022    1.3246    0.0000 C   0  0  0  0  0  0  0  0  0  0  0  0
    5.2022    0.3246    0.0000 C   0  0  0  0  0  0  0  0  0  0  0  0
    7.8003   -1.1754    0.0000 C   0  0  0  0  0  0  0  0  0  0  0  0
    8.6663    0.3246    0.0000 C   0  0  0  0  0  0  0  0  0  0  0  0
    4.3083    1.8593    0.0000 C   0  0  0  0  0  0  0  0  0  0  0  0
    4.3083   -0.2101    0.0000 C   0  0  0  0  0  0  0  0  0  0  0  0
    9.5323   -0.1754    0.0000 C   0  0  0  0  0  0  0  0  0  0  0  0
    8.6663   -1.6754    0.0000 C   0  0  0  0  0  0  0  0  0  0  0  0
    9.5323   -1.1754    0.0000 C   0  0  0  0  0  0  0  0  0  0  0  0
    3.4022    0.3038    0.0000 C   0  0  0  0  0  0  0  0  0  0  0  0
    3.4022    1.3454    0.0000 C   0  0  0  0  0  0  0  0  0  0  0  0
   10.3984    1.3246    0.0000 C   0  0  0  0  0  0  0  0  0  0  0  0
    7.8003   -3.1754    0.0000 C   0  0  0  0  0  0  0  0  0  0  0  0
    6.9343   -0.2954    0.0000 H   0  0  0  0  0  0  0  0  0  0  0  0
    7.5449    1.2170    0.0000 H   0  0  0  0  0  0  0  0  0  0  0  0
    7.1463    1.9072    0.0000 H   0  0  0  0  0  0  0  0  0  0  0  0
    7.2634   -1.4854    0.0000 H   0  0  0  0  0  0  0  0  0  0  0  0
    8.6663    0.9446    0.0000 H   0  0  0  0  0  0  0  0  0  0  0  0
    4.3154   -0.8300    0.0000 H   0  0  0  0  0  0  0  0  0  0  0  0
    2.8665    1.6575    0.0000 H   0  0  0  0  0  0  0  0  0  0  0  0
    3.7865    3.1754    0.0000 H   0  0  0  0  0  0  0  0  0  0  0  0
   10.9353   -1.3654    0.0000 H   0  0  0  0  0  0  0  0  0  0  0  0
    2.0000    0.1084    0.0000 H   0  0  0  0  0  0  0  0  0  0  0  0
   11.0184    1.3246    0.0000 H   0  0  0  0  0  0  0  0  0  0  0  0
   10.3984    1.9446    0.0000 H   0  0  0  0  0  0  0  0  0  0  0  0
    9.7784    1.3246    0.0000 H   0  0  0  0  0  0  0  0  0  0  0  0
    7.4903   -2.6385    0.0000 H   0  0  0  0  0  0  0  0  0  0  0  0
    7.2634   -3.4854    0.0000 H   0  0  0  0  0  0  0  0  0  0  0  0
    8.1103   -3.7123    0.0000 H   0  0  0  0  0  0  0  0  0  0  0  0
  1  8  1  0  0  0  0
  1 13  1  0  0  0  0
  2 11  2  0  0  0  0
  3 18  1  0  0  0  0
  3 23  1  0  0  0  0
  4 19  1  0  0  0  0
  4 24  1  0  0  0  0
  5 16  1  0  0  0  0
  5 32  1  0  0  0  0
  6 20  1  0  0  0  0
  6 33  1  0  0  0  0
  7 21  1  0  0  0  0
  7 34  1  0  0  0  0
  8  9  1  0  0  0  0
  8 10  1  0  0  0  0
  8 25  1  0  0  0  0
  9 11  1  0  0  0  0
  9 26  1  0  0  0  0
  9 27  1  0  0  0  0
 10 14  2  0  0  0  0
 10 15  1  0  0  0  0
 11 12  1  0  0  0  0
 12 13  1  0  0  0  0
 12 16  2  0  0  0  0
 13 17  2  0  0  0  0
 14 19  1  0  0  0  0
 14 28  1  0  0  0  0
 15 18  2  0  0  0  0
 15 29  1  0  0  0  0
 16 22  1  0  0  0  0
 17 21  1  0  0  0  0
 17 30  1  0  0  0  0
 18 20  1  0  0  0  0
 19 20  2  0  0  0  0
 21 22  2  0  0  0  0
 22 31  1  0  0  0  0
 23 35  1  0  0  0  0
 23 36  1  0  0  0  0
 23 37  1  0  0  0  0
 24 38  1  0  0  0  0
 24 39  1  0  0  0  0
 24 40  1  0  0  0  0
M  END
> <PUBCHEM_COMPOUND_CID>
9884033

> <PUBCHEM_COMPOUND_CANONICALIZED>
1

> <PUBCHEM_CACTVS_COMPLEXITY>
442

> <PUBCHEM_CACTVS_HBOND_ACCEPTOR>
7

> <PUBCHEM_CACTVS_HBOND_DONOR>
3

> <PUBCHEM_CACTVS_ROTATABLE_BOND>
3

> <PUBCHEM_CACTVS_SUBSKEYS>
AAADceB4OAAAAAAAAAAAAAAAAAAAAAAAAAA0YIAAAAAAAACRQAAAGgAACAAADBSgmAIyBoAABgCIAqBSAAACCAAkIAAAiAEGiMgNJzaGNRqCeWOl4BULuQfI7PzOIAABCAAIQABAAAIQABCAAAAAAAAAAA==

> <PUBCHEM_IUPAC_OPENEYE_NAME>
5,7-dihydroxy-2-(4-hydroxy-3,5-dimethoxy-phenyl)chroman-4-one

> <PUBCHEM_IUPAC_CAS_NAME>
5,7-dihydroxy-2-(4-hydroxy-3,5-dimethoxyphenyl)-3,4-dihydro-2H-1-benzopyran-4-one

> <PUBCHEM_IUPAC_NAME_MARKUP>
5,7-dihydroxy-2-(4-hydroxy-3,5-dimethoxyphenyl)-2,3-dihydrochromen-4-one

> <PUBCHEM_IUPAC_NAME>
5,7-dihydroxy-2-(4-hydroxy-3,5-dimethoxyphenyl)-2,3-dihydrochromen-4-one

> <PUBCHEM_IUPAC_SYSTEMATIC_NAME>
2-(3,5-dimethoxy-4-oxidanyl-phenyl)-5,7-bis(oxidanyl)-2,3-dihydrochromen-4-one

> <PUBCHEM_IUPAC_TRADITIONAL_NAME>
5,7-dihydroxy-2-(4-hydroxy-3,5-dimethoxy-phenyl)chroman-4-one

> <PUBCHEM_IUPAC_INCHI>
InChI=1S/C17H16O7/c1-22-14-3-8(4-15(23-2)17(14)21)12-7-11(20)16-10(19)5-9(18)6-13(16)24-12/h3-6,12,18-19,21H,7H2,1-2H3

> <PUBCHEM_IUPAC_INCHIKEY>
KCFYHBSOLOXZIF-UHFFFAOYSA-N

> <PUBCHEM_XLOGP3_AA>
2.3

> <PUBCHEM_EXACT_MASS>
332.08960285

> <PUBCHEM_MOLECULAR_FORMULA>
C17H16O7

> <PUBCHEM_MOLECULAR_WEIGHT>
332.3

> <PUBCHEM_OPENEYE_CAN_SMILES>
COC1=CC(=CC(=C1O)OC)C2CC(=O)C3=C(C=C(C=C3O2)O)O

> <PUBCHEM_OPENEYE_ISO_SMILES>
COC1=CC(=CC(=C1O)OC)C2CC(=O)C3=C(C=C(C=C3O2)O)O

> <PUBCHEM_CACTVS_TPSA>
105

> <PUBCHEM_MONOISOTOPIC_WEIGHT>
332.08960285

> <PUBCHEM_TOTAL_CHARGE>
0

> <PUBCHEM_HEAVY_ATOM_COUNT>
24

> <PUBCHEM_ATOM_DEF_STEREO_COUNT>
0

> <PUBCHEM_ATOM_UDEF_STEREO_COUNT>
1

> <PUBCHEM_BOND_DEF_STEREO_COUNT>
0

> <PUBCHEM_BOND_UDEF_STEREO_COUNT>
0

> <PUBCHEM_ISOTOPIC_ATOM_COUNT>
0

> <PUBCHEM_COMPONENT_COUNT>
1

> <PUBCHEM_CACTVS_TAUTO_COUNT>
-1

> <PUBCHEM_COORDINATE_TYPE>
1
5
255

> <PUBCHEM_BONDANNOTATIONS>
10  14  8
10  15  8
12  13  8
12  16  8
13  17  8
14  19  8
15  18  8
16  22  8
17  21  8
18  20  8
19  20  8
21  22  8
8  10  3

$$$$
