 
  -OEChem-10192103362D

 73 76  0     0  0  0  0  0  0999 V2000
    8.0622    1.0000    0.0000 O   0  0  0  0  0  0  0  0  0  0  0  0
   12.3923   -0.5000    0.0000 O   0  0  0  0  0  0  0  0  0  0  0  0
    8.9282    3.5000    0.0000 O   0  0  0  0  0  0  0  0  0  0  0  0
   13.2583    2.0000    0.0000 O   0  0  0  0  0  0  0  0  0  0  0  0
   10.6603    2.5000    0.0000 O   0  0  0  0  0  0  0  0  0  0  0  0
    9.7942   -1.0000    0.0000 N   0  0  0  0  0  0  0  0  0  0  0  0
    8.0622   -2.0000    0.0000 N   0  0  0  0  0  0  0  0  0  0  0  0
    5.4641   -2.5000    0.0000 N   0  0  0  0  0  0  0  0  0  0  0  0
    3.7320   -3.5000    0.0000 N   0  0  0  0  0  0  0  0  0  0  0  0
    8.9282   -0.5000    0.0000 C   0  0  0  0  0  0  0  0  0  0  0  0
   10.6603   -0.5000    0.0000 C   0  0  0  0  0  0  0  0  0  0  0  0
    9.7942   -2.0000    0.0000 C   0  0  0  0  0  0  0  0  0  0  0  0
    8.9282    0.5000    0.0000 C   0  0  0  0  0  0  0  0  0  0  0  0
   11.5263   -1.0000    0.0000 C   0  0  0  0  0  0  0  0  0  0  0  0
    8.9282   -2.5000    0.0000 C   0  0  0  0  0  0  0  0  0  0  0  0
    8.9282   -3.5000    0.0000 C   0  0  0  0  0  0  0  0  0  0  0  0
    8.0622    2.0000    0.0000 C   0  0  0  0  0  0  0  0  0  0  0  0
   12.3923    0.5000    0.0000 C   0  0  0  0  0  0  0  0  0  0  0  0
    7.1962   -2.5000    0.0000 C   0  0  0  0  0  0  0  0  0  0  0  0
    8.9282    2.5000    0.0000 C   0  0  0  0  0  0  0  0  0  0  0  0
   13.2583    1.0000    0.0000 C   0  0  0  0  0  0  0  0  0  0  0  0
    8.0622   -4.0000    0.0000 C   0  0  0  0  0  0  0  0  0  0  0  0
    7.1962   -3.5000    0.0000 C   0  0  0  0  0  0  0  0  0  0  0  0
    6.3301   -2.0000    0.0000 C   0  0  0  0  0  0  0  0  0  0  0  0
    9.7942    4.0000    0.0000 C   0  0  0  0  0  0  0  0  0  0  0  0
   12.3923    2.5000    0.0000 C   0  0  0  0  0  0  0  0  0  0  0  0
   10.6603    3.5000    0.0000 C   0  0  0  0  0  0  0  0  0  0  0  0
   11.5263    2.0000    0.0000 C   0  0  0  0  0  0  0  0  0  0  0  0
    6.3301   -1.0000    0.0000 C   0  0  0  0  0  0  0  0  0  0  0  0
    4.5981   -2.0000    0.0000 C   0  0  0  0  0  0  0  0  0  0  0  0
    5.4641   -0.5000    0.0000 C   0  0  0  0  0  0  0  0  0  0  0  0
    4.5981   -1.0000    0.0000 C   0  0  0  0  0  0  0  0  0  0  0  0
    3.7320   -2.5000    0.0000 C   0  0  0  0  0  0  0  0  0  0  0  0
    2.8660   -2.0000    0.0000 C   0  0  0  0  0  0  0  0  0  0  0  0
    2.0000   -2.5000    0.0000 C   0  0  0  0  0  0  0  0  0  0  0  0
    2.8660   -4.0000    0.0000 C   0  0  0  0  0  0  0  0  0  0  0  0
    2.0000   -3.5000    0.0000 C   0  0  0  0  0  0  0  0  0  0  0  0
    8.3176   -0.3923    0.0000 H   0  0  0  0  0  0  0  0  0  0  0  0
    8.7162   -1.0826    0.0000 H   0  0  0  0  0  0  0  0  0  0  0  0
   11.0588   -0.0251    0.0000 H   0  0  0  0  0  0  0  0  0  0  0  0
   10.2617   -0.0251    0.0000 H   0  0  0  0  0  0  0  0  0  0  0  0
   10.0063   -2.5826    0.0000 H   0  0  0  0  0  0  0  0  0  0  0  0
   10.4048   -1.8923    0.0000 H   0  0  0  0  0  0  0  0  0  0  0  0
    9.5388    0.3923    0.0000 H   0  0  0  0  0  0  0  0  0  0  0  0
    9.1403    1.0826    0.0000 H   0  0  0  0  0  0  0  0  0  0  0  0
   11.1278   -1.4750    0.0000 H   0  0  0  0  0  0  0  0  0  0  0  0
   11.9248   -1.4750    0.0000 H   0  0  0  0  0  0  0  0  0  0  0  0
    9.4651   -3.8100    0.0000 H   0  0  0  0  0  0  0  0  0  0  0  0
    7.8501    2.5826    0.0000 H   0  0  0  0  0  0  0  0  0  0  0  0
    7.4516    1.8923    0.0000 H   0  0  0  0  0  0  0  0  0  0  0  0
   12.1803    1.0826    0.0000 H   0  0  0  0  0  0  0  0  0  0  0  0
   11.7817    0.3923    0.0000 H   0  0  0  0  0  0  0  0  0  0  0  0
    9.1403    1.9174    0.0000 H   0  0  0  0  0  0  0  0  0  0  0  0
    9.5388    2.6077    0.0000 H   0  0  0  0  0  0  0  0  0  0  0  0
   13.4704    0.4174    0.0000 H   0  0  0  0  0  0  0  0  0  0  0  0
   13.8689    1.1077    0.0000 H   0  0  0  0  0  0  0  0  0  0  0  0
    8.0622   -4.6200    0.0000 H   0  0  0  0  0  0  0  0  0  0  0  0
    6.6592   -3.8100    0.0000 H   0  0  0  0  0  0  0  0  0  0  0  0
   10.1928    4.4750    0.0000 H   0  0  0  0  0  0  0  0  0  0  0  0
    9.3957    4.4750    0.0000 H   0  0  0  0  0  0  0  0  0  0  0  0
   12.7908    2.9750    0.0000 H   0  0  0  0  0  0  0  0  0  0  0  0
   11.9938    2.9750    0.0000 H   0  0  0  0  0  0  0  0  0  0  0  0
   11.2708    3.3923    0.0000 H   0  0  0  0  0  0  0  0  0  0  0  0
   10.8723    4.0826    0.0000 H   0  0  0  0  0  0  0  0  0  0  0  0
   11.1278    1.5250    0.0000 H   0  0  0  0  0  0  0  0  0  0  0  0
   11.9248    1.5250    0.0000 H   0  0  0  0  0  0  0  0  0  0  0  0
    6.8671   -0.6900    0.0000 H   0  0  0  0  0  0  0  0  0  0  0  0
    5.4641    0.1200    0.0000 H   0  0  0  0  0  0  0  0  0  0  0  0
    4.0611   -0.6900    0.0000 H   0  0  0  0  0  0  0  0  0  0  0  0
    2.8660   -1.3800    0.0000 H   0  0  0  0  0  0  0  0  0  0  0  0
    1.4631   -2.1900    0.0000 H   0  0  0  0  0  0  0  0  0  0  0  0
    2.8660   -4.6200    0.0000 H   0  0  0  0  0  0  0  0  0  0  0  0
    1.4631   -3.8100    0.0000 H   0  0  0  0  0  0  0  0  0  0  0  0
  1 13  1  0  0  0  0
  1 17  1  0  0  0  0
  2 14  1  0  0  0  0
  2 18  1  0  0  0  0
  3 20  1  0  0  0  0
  3 25  1  0  0  0  0
  4 21  1  0  0  0  0
  4 26  1  0  0  0  0
  5 27  1  0  0  0  0
  5 28  1  0  0  0  0
  6 10  1  0  0  0  0
  6 11  1  0  0  0  0
  6 12  1  0  0  0  0
  7 15  2  0  0  0  0
  7 19  1  0  0  0  0
  8 24  1  0  0  0  0
  8 30  2  0  0  0  0
  9 33  1  0  0  0  0
  9 36  2  0  0  0  0
 10 13  1  0  0  0  0
 10 38  1  0  0  0  0
 10 39  1  0  0  0  0
 11 14  1  0  0  0  0
 11 40  1  0  0  0  0
 11 41  1  0  0  0  0
 12 15  1  0  0  0  0
 12 42  1  0  0  0  0
 12 43  1  0  0  0  0
 13 44  1  0  0  0  0
 13 45  1  0  0  0  0
 14 46  1  0  0  0  0
 14 47  1  0  0  0  0
 15 16  1  0  0  0  0
 16 22  2  0  0  0  0
 16 48  1  0  0  0  0
 17 20  1  0  0  0  0
 17 49  1  0  0  0  0
 17 50  1  0  0  0  0
 18 21  1  0  0  0  0
 18 51  1  0  0  0  0
 18 52  1  0  0  0  0
 19 23  2  0  0  0  0
 19 24  1  0  0  0  0
 20 53  1  0  0  0  0
 20 54  1  0  0  0  0
 21 55  1  0  0  0  0
 21 56  1  0  0  0  0
 22 23  1  0  0  0  0
 22 57  1  0  0  0  0
 23 58  1  0  0  0  0
 24 29  2  0  0  0  0
 25 27  1  0  0  0  0
 25 59  1  0  0  0  0
 25 60  1  0  0  0  0
 26 28  1  0  0  0  0
 26 61  1  0  0  0  0
 26 62  1  0  0  0  0
 27 63  1  0  0  0  0
 27 64  1  0  0  0  0
 28 65  1  0  0  0  0
 28 66  1  0  0  0  0
 29 31  1  0  0  0  0
 29 67  1  0  0  0  0
 30 32  1  0  0  0  0
 30 33  1  0  0  0  0
 31 32  2  0  0  0  0
 31 68  1  0  0  0  0
 32 69  1  0  0  0  0
 33 34  2  0  0  0  0
 34 35  1  0  0  0  0
 34 70  1  0  0  0  0
 35 37  2  0  0  0  0
 35 71  1  0  0  0  0
 36 37  1  0  0  0  0
 36 72  1  0  0  0  0
 37 73  1  0  0  0  0
M  END
> <PUBCHEM_COMPOUND_CID>
14953575

> <PUBCHEM_COMPOUND_CANONICALIZED>
1

> <PUBCHEM_CACTVS_COMPLEXITY>
571

> <PUBCHEM_CACTVS_HBOND_ACCEPTOR>
9

> <PUBCHEM_CACTVS_HBOND_DONOR>
0

> <PUBCHEM_CACTVS_ROTATABLE_BOND>
4

> <PUBCHEM_CACTVS_SUBSKEYS>
AAADcfB7uAAAAAAAAAAAAAAAAAAAAAAAAAAsWLAAAAAAAAAB+AAAHgAAAAAACAjhlgY8gJMIFACgATRnRACCgCAxAiAI2CA4ZJgLYOLAkZGXIAhggADayAcQgIAAAAAAAAAAAAAAAAAAAAAAAAAAAAAAAA==

> <PUBCHEM_IUPAC_OPENEYE_NAME>
16-[[6-[6-(2-pyridyl)-2-pyridyl]-2-pyridyl]methyl]-1,4,7,10,13-pentaoxa-16-azacyclooctadecane

> <PUBCHEM_IUPAC_CAS_NAME>
16-[[6-[6-(2-pyridinyl)-2-pyridinyl]-2-pyridinyl]methyl]-1,4,7,10,13-pentaoxa-16-azacyclooctadecane

> <PUBCHEM_IUPAC_NAME_MARKUP>
16-[[6-(6-pyridin-2-ylpyridin-2-yl)pyridin-2-yl]methyl]-1,4,7,10,13-pentaoxa-16-azacyclooctadecane

> <PUBCHEM_IUPAC_NAME>
16-[[6-(6-pyridin-2-ylpyridin-2-yl)pyridin-2-yl]methyl]-1,4,7,10,13-pentaoxa-16-azacyclooctadecane

> <PUBCHEM_IUPAC_SYSTEMATIC_NAME>
16-[[6-(6-pyridin-2-ylpyridin-2-yl)pyridin-2-yl]methyl]-1,4,7,10,13-pentaoxa-16-azacyclooctadecane

> <PUBCHEM_IUPAC_TRADITIONAL_NAME>
16-[[6-[6-(2-pyridyl)-2-pyridyl]-2-pyridyl]methyl]-1,4,7,10,13-pentaoxa-16-azacyclooctadecane

> <PUBCHEM_IUPAC_INCHI>
InChI=1S/C28H36N4O5/c1-2-10-29-25(6-1)26-8-4-9-28(31-26)27-7-3-5-24(30-27)23-32-11-13-33-15-17-35-19-21-37-22-20-36-18-16-34-14-12-32/h1-10H,11-23H2

> <PUBCHEM_IUPAC_INCHIKEY>
LOPDJEASBYZBKF-UHFFFAOYSA-N

> <PUBCHEM_XLOGP3_AA>
1

> <PUBCHEM_EXACT_MASS>
508.26857026

> <PUBCHEM_MOLECULAR_FORMULA>
C28H36N4O5

> <PUBCHEM_MOLECULAR_WEIGHT>
508.6

> <PUBCHEM_OPENEYE_CAN_SMILES>
C1COCCOCCOCCOCCOCCN1CC2=NC(=CC=C2)C3=CC=CC(=N3)C4=CC=CC=N4

> <PUBCHEM_OPENEYE_ISO_SMILES>
C1COCCOCCOCCOCCOCCN1CC2=NC(=CC=C2)C3=CC=CC(=N3)C4=CC=CC=N4

> <PUBCHEM_CACTVS_TPSA>
88.1

> <PUBCHEM_MONOISOTOPIC_WEIGHT>
508.26857026

> <PUBCHEM_TOTAL_CHARGE>
0

> <PUBCHEM_HEAVY_ATOM_COUNT>
37

> <PUBCHEM_ATOM_DEF_STEREO_COUNT>
0

> <PUBCHEM_ATOM_UDEF_STEREO_COUNT>
0

> <PUBCHEM_BOND_DEF_STEREO_COUNT>
0

> <PUBCHEM_BOND_UDEF_STEREO_COUNT>
0

> <PUBCHEM_ISOTOPIC_ATOM_COUNT>
0

> <PUBCHEM_COMPONENT_COUNT>
1

> <PUBCHEM_CACTVS_TAUTO_COUNT>
-1

> <PUBCHEM_COORDINATE_TYPE>
1
5
255

> <PUBCHEM_BONDANNOTATIONS>
15  16  8
16  22  8
19  23  8
22  23  8
24  29  8
29  31  8
30  32  8
31  32  8
33  34  8
34  35  8
35  37  8
36  37  8
7  15  8
7  19  8
8  24  8
8  30  8
9  33  8
9  36  8

$$$$
