 
  -OEChem-10192104032D

 61 64  0     1  0  0  0  0  0999 V2000
   13.3733   -0.7243    0.0000 O   0  0  0  0  0  0  0  0  0  0  0  0
    7.4783    2.7422    0.0000 O   0  0  0  0  0  0  0  0  0  0  0  0
   13.9981    1.6077    0.0000 O   0  0  0  0  0  0  0  0  0  0  0  0
    9.4589    3.0205    0.0000 O   0  0  0  0  0  0  0  0  0  0  0  0
    2.1500    2.7206    0.0000 O   0  0  0  0  0  0  0  0  0  0  0  0
    3.8306    3.1397    0.0000 O   0  0  0  0  0  0  0  0  0  0  0  0
    4.0789   -1.4362    0.0000 O   0  0  0  0  0  0  0  0  0  0  0  0
    2.8758   -0.1902    0.0000 O   0  0  0  0  0  0  0  0  0  0  0  0
   11.7332    1.6165    0.0000 N   0  0  0  0  0  0  0  0  0  0  0  0
   12.8733    0.1417    0.0000 N   0  0  0  0  0  0  0  0  0  0  0  0
    8.0940    1.9542    0.0000 N   0  0  0  0  0  0  0  0  0  0  0  0
    5.0338    1.8937    0.0000 N   0  0  0  0  0  0  0  0  0  0  0  0
    3.3532    1.4747    0.0000 N   0  0  0  0  0  0  0  0  0  0  0  0
    4.5564    0.2288    0.0000 N   0  0  0  0  0  0  0  0  0  0  0  0
   11.4743    0.6506    0.0000 C   0  0  1  0  0  0  0  0  0  0  0  0
    9.6999    1.3054    0.0000 C   0  0  1  0  0  0  0  0  0  0  0  0
   10.9965    2.5991    0.0000 C   0  0  0  0  0  0  0  0  0  0  0  0
   10.2533   -0.2151    0.0000 C   0  0  0  0  0  0  0  0  0  0  0  0
    9.4243    0.3441    0.0000 C   0  0  0  0  0  0  0  0  0  0  0  0
   13.1321    1.1077    0.0000 C   0  0  0  0  0  0  0  0  0  0  0  0
    9.0843    2.0934    0.0000 C   0  0  0  0  0  0  0  0  0  0  0  0
    6.4881    2.6030    0.0000 C   0  0  1  0  0  0  0  0  0  0  0  0
    5.7934    3.3224    0.0000 C   0  0  0  0  0  0  0  0  0  0  0  0
    6.0186    1.7201    0.0000 C   0  0  0  0  0  0  0  0  0  0  0  0
    4.8946    2.8840    0.0000 C   0  0  0  0  0  0  0  0  0  0  0  0
   14.3733   -0.7243    0.0000 C   0  0  0  0  0  0  0  0  0  0  0  0
    4.3144    1.1991    0.0000 C   0  0  0  0  0  0  0  0  0  0  0  0
   14.8733   -1.5903    0.0000 C   0  0  0  0  0  0  0  0  0  0  0  0
   15.8733   -1.5903    0.0000 C   0  0  0  0  0  0  0  0  0  0  0  0
   14.3733   -2.4563    0.0000 C   0  0  0  0  0  0  0  0  0  0  0  0
    3.1112    2.4450    0.0000 C   0  0  0  0  0  0  0  0  0  0  0  0
   16.3733   -2.4563    0.0000 C   0  0  0  0  0  0  0  0  0  0  0  0
   14.8733   -3.3224    0.0000 C   0  0  0  0  0  0  0  0  0  0  0  0
    3.8370   -0.4659    0.0000 C   0  0  0  0  0  0  0  0  0  0  0  0
   15.8733   -3.3224    0.0000 C   0  0  0  0  0  0  0  0  0  0  0  0
   11.2543   -0.1705    0.0000 H   0  0  0  0  0  0  0  0  0  0  0  0
    9.9286    1.8816    0.0000 H   0  0  0  0  0  0  0  0  0  0  0  0
   11.3143    3.1314    0.0000 H   0  0  0  0  0  0  0  0  0  0  0  0
   10.3834    2.6910    0.0000 H   0  0  0  0  0  0  0  0  0  0  0  0
    9.8475   -0.6838    0.0000 H   0  0  0  0  0  0  0  0  0  0  0  0
   10.6700   -0.6742    0.0000 H   0  0  0  0  0  0  0  0  0  0  0  0
    8.8494    0.5763    0.0000 H   0  0  0  0  0  0  0  0  0  0  0  0
    9.1332   -0.2033    0.0000 H   0  0  0  0  0  0  0  0  0  0  0  0
    6.6899    3.1892    0.0000 H   0  0  0  0  0  0  0  0  0  0  0  0
    6.2820    3.7041    0.0000 H   0  0  0  0  0  0  0  0  0  0  0  0
    5.4648    3.8482    0.0000 H   0  0  0  0  0  0  0  0  0  0  0  0
    5.8477    1.1241    0.0000 H   0  0  0  0  0  0  0  0  0  0  0  0
    6.5934    1.4878    0.0000 H   0  0  0  0  0  0  0  0  0  0  0  0
    4.6826    3.4666    0.0000 H   0  0  0  0  0  0  0  0  0  0  0  0
    4.2930    2.7340    0.0000 H   0  0  0  0  0  0  0  0  0  0  0  0
    7.8617    1.3793    0.0000 H   0  0  0  0  0  0  0  0  0  0  0  0
   14.9559   -0.5122    0.0000 H   0  0  0  0  0  0  0  0  0  0  0  0
   14.2656   -0.1137    0.0000 H   0  0  0  0  0  0  0  0  0  0  0  0
    2.9072    1.0440    0.0000 H   0  0  0  0  0  0  0  0  0  0  0  0
   16.1833   -1.0534    0.0000 H   0  0  0  0  0  0  0  0  0  0  0  0
   13.7533   -2.4563    0.0000 H   0  0  0  0  0  0  0  0  0  0  0  0
   16.9933   -2.4563    0.0000 H   0  0  0  0  0  0  0  0  0  0  0  0
   14.5633   -3.8593    0.0000 H   0  0  0  0  0  0  0  0  0  0  0  0
   16.1833   -3.8593    0.0000 H   0  0  0  0  0  0  0  0  0  0  0  0
    2.0000    3.3222    0.0000 H   0  0  0  0  0  0  0  0  0  0  0  0
    3.6330   -1.8669    0.0000 H   0  0  0  0  0  0  0  0  0  0  0  0
  1 10  1  0  0  0  0
  1 26  1  0  0  0  0
  2 11  1  0  0  0  0
 22  2  1  6  0  0  0
  3 20  2  0  0  0  0
  4 21  2  0  0  0  0
  5 31  1  0  0  0  0
  5 60  1  0  0  0  0
  6 31  2  0  0  0  0
  7 34  1  0  0  0  0
  7 61  1  0  0  0  0
  8 34  2  0  0  0  0
  9 16  1  0  0  0  0
  9 17  1  0  0  0  0
  9 20  1  0  0  0  0
 10 15  1  0  0  0  0
 10 20  1  0  0  0  0
 11 21  1  0  0  0  0
 11 51  1  0  0  0  0
 12 24  1  0  0  0  0
 12 25  1  0  0  0  0
 12 27  1  0  0  0  0
 13 27  1  0  0  0  0
 13 31  1  0  0  0  0
 13 54  1  0  0  0  0
 14 27  2  0  0  0  0
 14 34  1  0  0  0  0
 15 17  1  0  0  0  0
 15 18  1  0  0  0  0
 15 36  1  1  0  0  0
 16 19  1  0  0  0  0
 16 21  1  1  0  0  0
 16 37  1  0  0  0  0
 17 38  1  0  0  0  0
 17 39  1  0  0  0  0
 18 19  1  0  0  0  0
 18 40  1  0  0  0  0
 18 41  1  0  0  0  0
 19 42  1  0  0  0  0
 19 43  1  0  0  0  0
 22 23  1  0  0  0  0
 22 24  1  0  0  0  0
 22 44  1  0  0  0  0
 23 25  1  0  0  0  0
 23 45  1  0  0  0  0
 23 46  1  0  0  0  0
 24 47  1  0  0  0  0
 24 48  1  0  0  0  0
 25 49  1  0  0  0  0
 25 50  1  0  0  0  0
 26 28  1  0  0  0  0
 26 52  1  0  0  0  0
 26 53  1  0  0  0  0
 28 29  2  0  0  0  0
 28 30  1  0  0  0  0
 29 32  1  0  0  0  0
 29 55  1  0  0  0  0
 30 33  2  0  0  0  0
 30 56  1  0  0  0  0
 32 35  2  0  0  0  0
 32 57  1  0  0  0  0
 33 35  1  0  0  0  0
 33 58  1  0  0  0  0
 35 59  1  0  0  0  0
M  END
> <PUBCHEM_COMPOUND_CID>
89860487

> <PUBCHEM_COMPOUND_CANONICALIZED>
1

> <PUBCHEM_CACTVS_COMPLEXITY>
863

> <PUBCHEM_CACTVS_HBOND_ACCEPTOR>
8

> <PUBCHEM_CACTVS_HBOND_DONOR>
4

> <PUBCHEM_CACTVS_ROTATABLE_BOND>
8

> <PUBCHEM_CACTVS_SUBSKEYS>
AAADceB7vAAAAAAAAAAAAAAAAAAAAWLAAAA8QAAABYAAAAABAAAAHgAUCAAADDzhmAYxCIPQAgCoAiFSPAACAAEgAAApiAGICImKZjKAmTCUMAAu1wOYiAeYySAeAAAAAAAAAAAAAAAAAAAAAAAAAAAAAA==

> <PUBCHEM_IUPAC_OPENEYE_NAME>
(E)-[[(3S)-3-[[(2S,5R)-6-benzyloxy-7-oxo-1,6-diazabicyclo[3.2.1]octane-2-carbonyl]amino]oxypyrrolidin-1-yl]-(carboxyamino)methylene]carbamic acid

> <PUBCHEM_IUPAC_CAS_NAME>
(E)-[(carboxyamino)-[(3S)-3-[[oxo-[(2S,5R)-7-oxo-6-phenylmethoxy-1,6-diazabicyclo[3.2.1]octan-2-yl]methyl]amino]oxy-1-pyrrolidinyl]methylidene]carbamic acid

> <PUBCHEM_IUPAC_NAME_MARKUP>
(<I>E</I>)-[(carboxyamino)-[(3<I>S</I>)-3-[[(2<I>S</I>,5<I>R</I>)-7-oxo-6-phenylmethoxy-1,6-diazabicyclo[3.2.1]octane-2-carbonyl]amino]oxypyrrolidin-1-yl]methylidene]carbamic acid

> <PUBCHEM_IUPAC_NAME>
(E)-[(carboxyamino)-[(3S)-3-[[(2S,5R)-7-oxo-6-phenylmethoxy-1,6-diazabicyclo[3.2.1]octane-2-carbonyl]amino]oxypyrrolidin-1-yl]methylidene]carbamic acid

> <PUBCHEM_IUPAC_SYSTEMATIC_NAME>
(E)-[(carboxyamino)-[(3S)-3-[[(2S,5R)-7-oxidanylidene-6-phenylmethoxy-1,6-diazabicyclo[3.2.1]octan-2-yl]carbonylamino]oxypyrrolidin-1-yl]methylidene]carbamic acid

> <PUBCHEM_IUPAC_TRADITIONAL_NAME>
(E)-[[(3S)-3-[[(2S,5R)-6-benzoxy-7-keto-1,6-diazabicyclo[3.2.1]octane-2-carbonyl]amino]oxypyrrolidino]-(carboxyamino)methylene]carbamic acid

> <PUBCHEM_IUPAC_INCHI>
InChI=1S/C21H26N6O8/c28-17(24-35-15-8-9-25(11-15)18(22-19(29)30)23-20(31)32)16-7-6-14-10-26(16)21(33)27(14)34-12-13-4-2-1-3-5-13/h1-5,14-16H,6-12H2,(H,22,23)(H,24,28)(H,29,30)(H,31,32)/t14-,15+,16+/m1/s1

> <PUBCHEM_IUPAC_INCHIKEY>
CFTBSOLFZDZQSH-PMPSAXMXSA-N

> <PUBCHEM_XLOGP3_AA>
1.1

> <PUBCHEM_EXACT_MASS>
490.18121181

> <PUBCHEM_MOLECULAR_FORMULA>
C21H26N6O8

> <PUBCHEM_MOLECULAR_WEIGHT>
490.5

> <PUBCHEM_OPENEYE_CAN_SMILES>
C1CC(N2CC1N(C2=O)OCC3=CC=CC=C3)C(=O)NOC4CCN(C4)C(=NC(=O)O)NC(=O)O

> <PUBCHEM_OPENEYE_ISO_SMILES>
C1C[C@H](N2C[C@@H]1N(C2=O)OCC3=CC=CC=C3)C(=O)NO[C@H]4CCN(C4)/C(=N/C(=O)O)/NC(=O)O

> <PUBCHEM_CACTVS_TPSA>
173

> <PUBCHEM_MONOISOTOPIC_WEIGHT>
490.18121181

> <PUBCHEM_TOTAL_CHARGE>
0

> <PUBCHEM_HEAVY_ATOM_COUNT>
35

> <PUBCHEM_ATOM_DEF_STEREO_COUNT>
3

> <PUBCHEM_ATOM_UDEF_STEREO_COUNT>
0

> <PUBCHEM_BOND_DEF_STEREO_COUNT>
1

> <PUBCHEM_BOND_UDEF_STEREO_COUNT>
0

> <PUBCHEM_ISOTOPIC_ATOM_COUNT>
0

> <PUBCHEM_COMPONENT_COUNT>
1

> <PUBCHEM_CACTVS_TAUTO_COUNT>
-1

> <PUBCHEM_COORDINATE_TYPE>
1
5
255

> <PUBCHEM_BONDANNOTATIONS>
15  36  5
16  21  5
22  2  6
28  29  8
28  30  8
29  32  8
30  33  8
32  35  8
33  35  8

$$$$
