 
  -OEChem-10192104272D

 71 73  0     1  0  0  0  0  0999 V2000
    6.8671   -1.0950    0.0000 O   0  0  0  0  0  0  0  0  0  0  0  0
    5.1350   -1.0950    0.0000 O   0  0  0  0  0  0  0  0  0  0  0  0
    6.0010    0.4050    0.0000 O   0  0  0  0  0  0  0  0  0  0  0  0
    6.8671   -3.0950    0.0000 O   0  0  0  0  0  0  0  0  0  0  0  0
    5.1350   -4.0950    0.0000 O   0  0  0  0  0  0  0  0  0  0  0  0
    3.4030   -3.0950    0.0000 O   0  0  0  0  0  0  0  0  0  0  0  0
    2.5369   -1.5950    0.0000 O   0  0  0  0  0  0  0  0  0  0  0  0
   10.3312    1.9050    0.0000 O   0  0  0  0  0  0  0  0  0  0  0  0
    6.0010    3.4050    0.0000 O   0  0  0  0  0  0  0  0  0  0  0  0
    7.7331    3.4050    0.0000 O   0  0  0  0  0  0  0  0  0  0  0  0
   11.1972    0.4050    0.0000 O   0  0  0  0  0  0  0  0  0  0  0  0
   16.3933    1.4050    0.0000 O   0  0  0  0  0  0  0  0  0  0  0  0
   16.3933    3.4050    0.0000 O   0  0  0  0  0  0  0  0  0  0  0  0
    7.7331    0.4050    0.0000 C   0  0  2  0  0  0  0  0  0  0  0  0
    6.0010   -2.5950    0.0000 C   0  0  1  0  0  0  0  0  0  0  0  0
    7.7331    1.4050    0.0000 C   0  0  2  0  0  0  0  0  0  0  0  0
    6.0010   -1.5950    0.0000 C   0  0  2  0  0  0  0  0  0  0  0  0
    5.1350   -3.0950    0.0000 C   0  0  2  0  0  0  0  0  0  0  0  0
    4.2690   -2.5950    0.0000 C   0  0  1  0  0  0  0  0  0  0  0  0
    6.8671   -0.0950    0.0000 C   0  0  2  0  0  0  0  0  0  0  0  0
    4.2690   -1.5950    0.0000 C   0  0  1  0  0  0  0  0  0  0  0  0
    8.5991    1.9050    0.0000 C   0  0  0  0  0  0  0  0  0  0  0  0
    6.8671    1.9050    0.0000 C   0  0  0  0  0  0  0  0  0  0  0  0
    3.4030   -1.0950    0.0000 C   0  0  0  0  0  0  0  0  0  0  0  0
    8.5991   -0.0950    0.0000 C   0  0  0  0  0  0  0  0  0  0  0  0
    6.0010    1.4050    0.0000 C   0  0  0  0  0  0  0  0  0  0  0  0
    9.4651    1.4050    0.0000 C   0  0  0  0  0  0  0  0  0  0  0  0
    6.8671    2.9050    0.0000 C   0  0  0  0  0  0  0  0  0  0  0  0
    8.5991   -1.0950    0.0000 C   0  0  0  0  0  0  0  0  0  0  0  0
   11.1972    1.4050    0.0000 C   0  0  0  0  0  0  0  0  0  0  0  0
    6.0010    4.4050    0.0000 C   0  0  0  0  0  0  0  0  0  0  0  0
   12.0632    1.9050    0.0000 C   0  0  0  0  0  0  0  0  0  0  0  0
   12.9292    1.4050    0.0000 C   0  0  0  0  0  0  0  0  0  0  0  0
   13.7953    1.9050    0.0000 C   0  0  0  0  0  0  0  0  0  0  0  0
   14.6613    1.4050    0.0000 C   0  0  0  0  0  0  0  0  0  0  0  0
   13.7953    2.9050    0.0000 C   0  0  0  0  0  0  0  0  0  0  0  0
   15.5273    1.9050    0.0000 C   0  0  0  0  0  0  0  0  0  0  0  0
   14.6613    3.4050    0.0000 C   0  0  0  0  0  0  0  0  0  0  0  0
   15.5273    2.9050    0.0000 C   0  0  0  0  0  0  0  0  0  0  0  0
    8.2700    0.7150    0.0000 H   0  0  0  0  0  0  0  0  0  0  0  0
    6.0010   -3.2150    0.0000 H   0  0  0  0  0  0  0  0  0  0  0  0
    7.7331    2.0250    0.0000 H   0  0  0  0  0  0  0  0  0  0  0  0
    6.0010   -0.9750    0.0000 H   0  0  0  0  0  0  0  0  0  0  0  0
    4.5981   -3.4050    0.0000 H   0  0  0  0  0  0  0  0  0  0  0  0
    4.2690   -3.2150    0.0000 H   0  0  0  0  0  0  0  0  0  0  0  0
    7.4040   -0.4050    0.0000 H   0  0  0  0  0  0  0  0  0  0  0  0
    4.2690   -0.9750    0.0000 H   0  0  0  0  0  0  0  0  0  0  0  0
    8.9976    2.3800    0.0000 H   0  0  0  0  0  0  0  0  0  0  0  0
    8.2006    2.3800    0.0000 H   0  0  0  0  0  0  0  0  0  0  0  0
    3.8015   -0.6201    0.0000 H   0  0  0  0  0  0  0  0  0  0  0  0
    3.0044   -0.6201    0.0000 H   0  0  0  0  0  0  0  0  0  0  0  0
    9.1360    0.2150    0.0000 H   0  0  0  0  0  0  0  0  0  0  0  0
    5.4641    1.7150    0.0000 H   0  0  0  0  0  0  0  0  0  0  0  0
    9.0666    0.9301    0.0000 H   0  0  0  0  0  0  0  0  0  0  0  0
    9.8637    0.9301    0.0000 H   0  0  0  0  0  0  0  0  0  0  0  0
    6.8671   -3.7150    0.0000 H   0  0  0  0  0  0  0  0  0  0  0  0
    4.5981   -4.4050    0.0000 H   0  0  0  0  0  0  0  0  0  0  0  0
    3.4030   -3.7150    0.0000 H   0  0  0  0  0  0  0  0  0  0  0  0
    8.0622   -1.4050    0.0000 H   0  0  0  0  0  0  0  0  0  0  0  0
    9.1360   -1.4050    0.0000 H   0  0  0  0  0  0  0  0  0  0  0  0
    2.0000   -1.2850    0.0000 H   0  0  0  0  0  0  0  0  0  0  0  0
    6.6210    4.4050    0.0000 H   0  0  0  0  0  0  0  0  0  0  0  0
    6.0010    5.0250    0.0000 H   0  0  0  0  0  0  0  0  0  0  0  0
    5.3810    4.4050    0.0000 H   0  0  0  0  0  0  0  0  0  0  0  0
   12.0632    2.5250    0.0000 H   0  0  0  0  0  0  0  0  0  0  0  0
   12.9292    0.7850    0.0000 H   0  0  0  0  0  0  0  0  0  0  0  0
   14.6613    0.7850    0.0000 H   0  0  0  0  0  0  0  0  0  0  0  0
   13.2583    3.2150    0.0000 H   0  0  0  0  0  0  0  0  0  0  0  0
   14.6613    4.0250    0.0000 H   0  0  0  0  0  0  0  0  0  0  0  0
   16.3933    0.7850    0.0000 H   0  0  0  0  0  0  0  0  0  0  0  0
   16.3933    4.0250    0.0000 H   0  0  0  0  0  0  0  0  0  0  0  0
 17  1  1  1  0  0  0
 20  1  1  6  0  0  0
  2 17  1  0  0  0  0
  2 21  1  0  0  0  0
  3 20  1  0  0  0  0
  3 26  1  0  0  0  0
 15  4  1  6  0  0  0
  4 56  1  0  0  0  0
 18  5  1  1  0  0  0
  5 57  1  0  0  0  0
 19  6  1  6  0  0  0
  6 58  1  0  0  0  0
  7 24  1  0  0  0  0
  7 61  1  0  0  0  0
  8 27  1  0  0  0  0
  8 30  1  0  0  0  0
  9 28  1  0  0  0  0
  9 31  1  0  0  0  0
 10 28  2  0  0  0  0
 11 30  2  0  0  0  0
 12 37  1  0  0  0  0
 12 70  1  0  0  0  0
 13 39  1  0  0  0  0
 13 71  1  0  0  0  0
 14 16  1  0  0  0  0
 14 20  1  0  0  0  0
 14 25  1  1  0  0  0
 14 40  1  0  0  0  0
 15 17  1  0  0  0  0
 15 18  1  0  0  0  0
 15 41  1  0  0  0  0
 16 22  1  1  0  0  0
 16 23  1  0  0  0  0
 16 42  1  0  0  0  0
 17 43  1  0  0  0  0
 18 19  1  0  0  0  0
 18 44  1  0  0  0  0
 19 21  1  0  0  0  0
 19 45  1  0  0  0  0
 20 46  1  0  0  0  0
 21 24  1  1  0  0  0
 21 47  1  0  0  0  0
 22 27  1  0  0  0  0
 22 48  1  0  0  0  0
 22 49  1  0  0  0  0
 23 26  2  0  0  0  0
 23 28  1  0  0  0  0
 24 50  1  0  0  0  0
 24 51  1  0  0  0  0
 25 29  2  0  0  0  0
 25 52  1  0  0  0  0
 26 53  1  0  0  0  0
 27 54  1  0  0  0  0
 27 55  1  0  0  0  0
 29 59  1  0  0  0  0
 29 60  1  0  0  0  0
 30 32  1  0  0  0  0
 31 62  1  0  0  0  0
 31 63  1  0  0  0  0
 31 64  1  0  0  0  0
 32 33  2  0  0  0  0
 32 65  1  0  0  0  0
 33 34  1  0  0  0  0
 33 66  1  0  0  0  0
 34 35  2  0  0  0  0
 34 36  1  0  0  0  0
 35 37  1  0  0  0  0
 35 67  1  0  0  0  0
 36 38  2  0  0  0  0
 36 68  1  0  0  0  0
 37 39  2  0  0  0  0
 38 39  1  0  0  0  0
 38 69  1  0  0  0  0
M  END
> <PUBCHEM_COMPOUND_CID>
10929701

> <PUBCHEM_COMPOUND_CANONICALIZED>
1

> <PUBCHEM_CACTVS_COMPLEXITY>
904

> <PUBCHEM_CACTVS_HBOND_ACCEPTOR>
13

> <PUBCHEM_CACTVS_HBOND_DONOR>
6

> <PUBCHEM_CACTVS_ROTATABLE_BOND>
12

> <PUBCHEM_CACTVS_SUBSKEYS>
AAADcfB4PAAAAAAAAAAAAAAAAAAAAAAAAAA0QIAAAAAAAAABAAAAGgAACAAADRSwmAMyDoAABgCIAiDSCAACCAAgIAAIiAEGiMgZNjKCMRKicAElwBEPuYfI5BwOoAABAAAAQABAAAIAAACAAAAAAAAAAA==

> <PUBCHEM_IUPAC_OPENEYE_NAME>
methyl (2S,3R,4S)-4-[2-[(E)-3-(3,4-dihydroxyphenyl)prop-2-enoyl]oxyethyl]-2-[(2S,3R,4S,5S,6R)-3,4,5-trihydroxy-6-(hydroxymethyl)tetrahydropyran-2-yl]oxy-3-vinyl-3,4-dihydro-2H-pyran-5-carboxylate

> <PUBCHEM_IUPAC_CAS_NAME>
(2S,3R,4S)-4-[2-[(E)-3-(3,4-dihydroxyphenyl)-1-oxoprop-2-enoxy]ethyl]-3-ethenyl-2-[[(2S,3R,4S,5S,6R)-3,4,5-trihydroxy-6-(hydroxymethyl)-2-oxanyl]oxy]-3,4-dihydro-2H-pyran-5-carboxylic acid methyl ester

> <PUBCHEM_IUPAC_NAME_MARKUP>
methyl (2<I>S</I>,3<I>R</I>,4<I>S</I>)-4-[2-[(<I>E</I>)-3-(3,4-dihydroxyphenyl)prop-2-enoyl]oxyethyl]-3-ethenyl-2-[(2<I>S</I>,3<I>R</I>,4<I>S</I>,5<I>S</I>,6<I>R</I>)-3,4,5-trihydroxy-6-(hydroxymethyl)oxan-2-yl]oxy-3,4-dihydro-2<I>H</I>-pyran-5-carboxylate

> <PUBCHEM_IUPAC_NAME>
methyl (2S,3R,4S)-4-[2-[(E)-3-(3,4-dihydroxyphenyl)prop-2-enoyl]oxyethyl]-3-ethenyl-2-[(2S,3R,4S,5S,6R)-3,4,5-trihydroxy-6-(hydroxymethyl)oxan-2-yl]oxy-3,4-dihydro-2H-pyran-5-carboxylate

> <PUBCHEM_IUPAC_SYSTEMATIC_NAME>
methyl (2S,3R,4S)-4-[2-[(E)-3-[3,4-bis(oxidanyl)phenyl]prop-2-enoyl]oxyethyl]-3-ethenyl-2-[(2S,3R,4S,5S,6R)-6-(hydroxymethyl)-3,4,5-tris(oxidanyl)oxan-2-yl]oxy-3,4-dihydro-2H-pyran-5-carboxylate

> <PUBCHEM_IUPAC_TRADITIONAL_NAME>
(2S,3R,4S)-4-[2-[(E)-3-(3,4-dihydroxyphenyl)acryloyl]oxyethyl]-2-[(2S,3R,4S,5S,6R)-3,4,5-trihydroxy-6-methylol-tetrahydropyran-2-yl]oxy-3-vinyl-3,4-dihydro-2H-pyran-5-carboxylic acid methyl ester

> <PUBCHEM_IUPAC_INCHI>
InChI=1S/C26H32O13/c1-3-14-15(8-9-36-20(30)7-5-13-4-6-17(28)18(29)10-13)16(24(34)35-2)12-37-25(14)39-26-23(33)22(32)21(31)19(11-27)38-26/h3-7,10,12,14-15,19,21-23,25-29,31-33H,1,8-9,11H2,2H3/b7-5+/t14-,15+,19-,21-,22+,23-,25+,26+/m1/s1

> <PUBCHEM_IUPAC_INCHIKEY>
VDDWXGQJLRBJBO-GWYYIRIBSA-N

> <PUBCHEM_XLOGP3_AA>
0.6

> <PUBCHEM_EXACT_MASS>
552.18429107

> <PUBCHEM_MOLECULAR_FORMULA>
C26H32O13

> <PUBCHEM_MOLECULAR_WEIGHT>
552.5

> <PUBCHEM_OPENEYE_CAN_SMILES>
COC(=O)C1=COC(C(C1CCOC(=O)C=CC2=CC(=C(C=C2)O)O)C=C)OC3C(C(C(C(O3)CO)O)O)O

> <PUBCHEM_OPENEYE_ISO_SMILES>
COC(=O)C1=CO[C@H]([C@@H]([C@@H]1CCOC(=O)/C=C/C2=CC(=C(C=C2)O)O)C=C)O[C@H]3[C@@H]([C@H]([C@@H]([C@H](O3)CO)O)O)O

> <PUBCHEM_CACTVS_TPSA>
202

> <PUBCHEM_MONOISOTOPIC_WEIGHT>
552.18429107

> <PUBCHEM_TOTAL_CHARGE>
0

> <PUBCHEM_HEAVY_ATOM_COUNT>
39

> <PUBCHEM_ATOM_DEF_STEREO_COUNT>
8

> <PUBCHEM_ATOM_UDEF_STEREO_COUNT>
0

> <PUBCHEM_BOND_DEF_STEREO_COUNT>
1

> <PUBCHEM_BOND_UDEF_STEREO_COUNT>
0

> <PUBCHEM_ISOTOPIC_ATOM_COUNT>
0

> <PUBCHEM_COMPONENT_COUNT>
1

> <PUBCHEM_CACTVS_TAUTO_COUNT>
-1

> <PUBCHEM_COORDINATE_TYPE>
1
5
255

> <PUBCHEM_BONDANNOTATIONS>
17  1  5
20  1  6
14  25  5
16  22  5
21  24  5
34  35  8
34  36  8
35  37  8
36  38  8
37  39  8
38  39  8
15  4  6
18  5  5
19  6  6

$$$$
