 
  -OEChem-10192103302D

 82 86  0     1  0  0  0  0  0999 V2000
    6.7577    0.4234    0.0000 P   0  0  3  0  0  0  0  0  0  0  0  0
    7.3435   -2.5809    0.0000 O   0  0  0  0  0  0  0  0  0  0  0  0
    8.7855    2.7527    0.0000 O   0  0  0  0  0  0  0  0  0  0  0  0
    6.0873   -0.3186    0.0000 O   0  0  0  0  0  0  0  0  0  0  0  0
    7.4282    1.1654    0.0000 O   0  0  0  0  0  0  0  0  0  0  0  0
    6.6721    4.2458    0.0000 O   0  0  0  0  0  0  0  0  0  0  0  0
    9.0681   -1.4028    0.0000 O   0  0  0  0  0  0  0  0  0  0  0  0
    6.0158    1.0938    0.0000 O   0  0  0  0  0  0  0  0  0  0  0  0
    7.4997   -0.2470    0.0000 O   0  0  0  0  0  0  0  0  0  0  0  0
   10.5295    2.1769    0.0000 O   0  0  0  0  0  0  0  0  0  0  0  0
    7.3794    5.8268    0.0000 O   0  0  0  0  0  0  0  0  0  0  0  0
    4.2690   -6.6435    0.0000 O   0  0  0  0  0  0  0  0  0  0  0  0
    9.7753    0.1783    0.0000 O   0  0  0  0  0  0  0  0  0  0  0  0
    6.0812   -3.8388    0.0000 N   0  0  0  0  0  0  0  0  0  0  0  0
   10.1724    3.8718    0.0000 N   0  0  0  0  0  0  0  0  0  0  0  0
    6.0812   -5.4482    0.0000 N   0  0  0  0  0  0  0  0  0  0  0  0
    4.2690   -3.6435    0.0000 N   0  0  0  0  0  0  0  0  0  0  0  0
    5.6565    5.6488    0.0000 N   0  0  0  0  0  0  0  0  0  0  0  0
    3.4030   -5.1435    0.0000 N   0  0  0  0  0  0  0  0  0  0  0  0
   11.4615    5.0285    0.0000 N   0  0  0  0  0  0  0  0  0  0  0  0
   11.8187    3.3337    0.0000 N   0  0  0  0  0  0  0  0  0  0  0  0
   10.7910   -1.2247    0.0000 N   0  0  0  0  0  0  0  0  0  0  0  0
    2.5369   -3.6435    0.0000 N   0  0  0  0  0  0  0  0  0  0  0  0
   13.1079    4.4904    0.0000 N   0  0  0  0  0  0  0  0  0  0  0  0
    6.3947   -1.2702    0.0000 C   0  0  2  0  0  0  0  0  0  0  0  0
    7.3452   -1.5809    0.0000 C   0  0  1  0  0  0  0  0  0  0  0  0
    5.8055   -2.0782    0.0000 C   0  0  0  0  0  0  0  0  0  0  0  0
    6.3919   -2.8882    0.0000 C   0  0  1  0  0  0  0  0  0  0  0  0
    7.7912    2.8589    0.0000 C   0  0  2  0  0  0  0  0  0  0  0  0
    7.5850    3.8374    0.0000 C   0  0  2  0  0  0  0  0  0  0  0  0
    8.4519    4.3360    0.0000 C   0  0  0  0  0  0  0  0  0  0  0  0
    9.1939    3.6655    0.0000 C   0  0  1  0  0  0  0  0  0  0  0  0
    8.1552   -0.9945    0.0000 C   0  0  0  0  0  0  0  0  0  0  0  0
    7.1208    2.1170    0.0000 C   0  0  0  0  0  0  0  0  0  0  0  0
    5.1350   -4.1435    0.0000 C   0  0  0  0  0  0  0  0  0  0  0  0
    6.6648   -4.6435    0.0000 C   0  0  0  0  0  0  0  0  0  0  0  0
    5.1350   -5.1435    0.0000 C   0  0  0  0  0  0  0  0  0  0  0  0
   10.8402    3.1274    0.0000 C   0  0  0  0  0  0  0  0  0  0  0  0
   10.4830    4.8223    0.0000 C   0  0  0  0  0  0  0  0  0  0  0  0
    6.5693    5.2405    0.0000 C   0  0  0  0  0  0  0  0  0  0  0  0
    4.2690   -5.6435    0.0000 C   0  0  0  0  0  0  0  0  0  0  0  0
    9.8781   -0.8164    0.0000 C   0  0  0  0  0  0  0  0  0  0  0  0
    3.4030   -4.1435    0.0000 C   0  0  0  0  0  0  0  0  0  0  0  0
   12.1294    4.2842    0.0000 C   0  0  0  0  0  0  0  0  0  0  0  0
    5.5537    6.6435    0.0000 C   0  0  0  0  0  0  0  0  0  0  0  0
    4.8465    5.0624    0.0000 C   0  0  0  0  0  0  0  0  0  0  0  0
   11.6010   -0.6383    0.0000 C   0  0  0  0  0  0  0  0  0  0  0  0
   10.8938   -2.2194    0.0000 C   0  0  0  0  0  0  0  0  0  0  0  0
    5.7825   -1.1722    0.0000 H   0  0  0  0  0  0  0  0  0  0  0  0
    7.8972   -1.8633    0.0000 H   0  0  0  0  0  0  0  0  0  0  0  0
    5.3455   -1.6625    0.0000 H   0  0  0  0  0  0  0  0  0  0  0  0
    5.3440   -2.4923    0.0000 H   0  0  0  0  0  0  0  0  0  0  0  0
    5.7794   -2.9842    0.0000 H   0  0  0  0  0  0  0  0  0  0  0  0
    8.0124    2.2797    0.0000 H   0  0  0  0  0  0  0  0  0  0  0  0
    7.5536    4.4566    0.0000 H   0  0  0  0  0  0  0  0  0  0  0  0
    8.9133    4.7500    0.0000 H   0  0  0  0  0  0  0  0  0  0  0  0
    8.0883    4.8382    0.0000 H   0  0  0  0  0  0  0  0  0  0  0  0
    9.3554    4.2641    0.0000 H   0  0  0  0  0  0  0  0  0  0  0  0
    8.5028   -0.4811    0.0000 H   0  0  0  0  0  0  0  0  0  0  0  0
    7.7100   -0.5630    0.0000 H   0  0  0  0  0  0  0  0  0  0  0  0
    6.7399    2.6062    0.0000 H   0  0  0  0  0  0  0  0  0  0  0  0
    6.5728    1.8268    0.0000 H   0  0  0  0  0  0  0  0  0  0  0  0
    7.2848   -4.6435    0.0000 H   0  0  0  0  0  0  0  0  0  0  0  0
   10.0690    5.2837    0.0000 H   0  0  0  0  0  0  0  0  0  0  0  0
    5.4258    0.9032    0.0000 H   0  0  0  0  0  0  0  0  0  0  0  0
    2.8660   -5.4535    0.0000 H   0  0  0  0  0  0  0  0  0  0  0  0
    6.1704    6.7072    0.0000 H   0  0  0  0  0  0  0  0  0  0  0  0
    5.4900    7.2602    0.0000 H   0  0  0  0  0  0  0  0  0  0  0  0
    4.9370    6.5797    0.0000 H   0  0  0  0  0  0  0  0  0  0  0  0
    4.4829    5.5646    0.0000 H   0  0  0  0  0  0  0  0  0  0  0  0
    4.3442    4.6988    0.0000 H   0  0  0  0  0  0  0  0  0  0  0  0
    5.2100    4.5602    0.0000 H   0  0  0  0  0  0  0  0  0  0  0  0
    2.0000   -3.9535    0.0000 H   0  0  0  0  0  0  0  0  0  0  0  0
    2.5369   -3.0235    0.0000 H   0  0  0  0  0  0  0  0  0  0  0  0
   11.9646   -1.1406    0.0000 H   0  0  0  0  0  0  0  0  0  0  0  0
   12.1032   -0.2748    0.0000 H   0  0  0  0  0  0  0  0  0  0  0  0
   11.2374   -0.1361    0.0000 H   0  0  0  0  0  0  0  0  0  0  0  0
   10.2771   -2.2832    0.0000 H   0  0  0  0  0  0  0  0  0  0  0  0
   10.9575   -2.8361    0.0000 H   0  0  0  0  0  0  0  0  0  0  0  0
   11.5105   -2.1557    0.0000 H   0  0  0  0  0  0  0  0  0  0  0  0
   13.3005    5.0797    0.0000 H   0  0  0  0  0  0  0  0  0  0  0  0
   13.5219    4.0289    0.0000 H   0  0  0  0  0  0  0  0  0  0  0  0
  1  4  1  0  0  0  0
  1  5  1  0  0  0  0
  1  8  1  0  0  0  0
  1  9  2  0  0  0  0
  2 26  1  0  0  0  0
  2 28  1  0  0  0  0
  3 29  1  0  0  0  0
  3 32  1  0  0  0  0
 25  4  1  6  0  0  0
  5 34  1  0  0  0  0
 30  6  1  1  0  0  0
  6 40  1  0  0  0  0
  7 33  1  0  0  0  0
  7 42  1  0  0  0  0
  8 65  1  0  0  0  0
 10 38  2  0  0  0  0
 11 40  2  0  0  0  0
 12 41  2  0  0  0  0
 13 42  2  0  0  0  0
 28 14  1  1  0  0  0
 14 35  1  0  0  0  0
 14 36  1  0  0  0  0
 32 15  1  6  0  0  0
 15 38  1  0  0  0  0
 15 39  1  0  0  0  0
 16 36  2  0  0  0  0
 16 37  1  0  0  0  0
 17 35  1  0  0  0  0
 17 43  2  0  0  0  0
 18 40  1  0  0  0  0
 18 45  1  0  0  0  0
 18 46  1  0  0  0  0
 19 41  1  0  0  0  0
 19 43  1  0  0  0  0
 19 66  1  0  0  0  0
 20 39  2  0  0  0  0
 20 44  1  0  0  0  0
 21 38  1  0  0  0  0
 21 44  2  0  0  0  0
 22 42  1  0  0  0  0
 22 47  1  0  0  0  0
 22 48  1  0  0  0  0
 23 43  1  0  0  0  0
 23 73  1  0  0  0  0
 23 74  1  0  0  0  0
 24 44  1  0  0  0  0
 24 81  1  0  0  0  0
 24 82  1  0  0  0  0
 25 26  1  0  0  0  0
 25 27  1  0  0  0  0
 25 49  1  0  0  0  0
 26 33  1  1  0  0  0
 26 50  1  0  0  0  0
 27 28  1  0  0  0  0
 27 51  1  0  0  0  0
 27 52  1  0  0  0  0
 28 53  1  0  0  0  0
 29 30  1  0  0  0  0
 29 34  1  1  0  0  0
 29 54  1  0  0  0  0
 30 31  1  0  0  0  0
 30 55  1  0  0  0  0
 31 32  1  0  0  0  0
 31 56  1  0  0  0  0
 31 57  1  0  0  0  0
 32 58  1  0  0  0  0
 33 59  1  0  0  0  0
 33 60  1  0  0  0  0
 34 61  1  0  0  0  0
 34 62  1  0  0  0  0
 35 37  2  0  0  0  0
 36 63  1  0  0  0  0
 37 41  1  0  0  0  0
 39 64  1  0  0  0  0
 45 67  1  0  0  0  0
 45 68  1  0  0  0  0
 45 69  1  0  0  0  0
 46 70  1  0  0  0  0
 46 71  1  0  0  0  0
 46 72  1  0  0  0  0
 47 75  1  0  0  0  0
 47 76  1  0  0  0  0
 47 77  1  0  0  0  0
 48 78  1  0  0  0  0
 48 79  1  0  0  0  0
 48 80  1  0  0  0  0
M  END
> <PUBCHEM_COMPOUND_CID>
136286706

> <PUBCHEM_COMPOUND_CANONICALIZED>
1

> <PUBCHEM_CACTVS_COMPLEXITY>
1430

> <PUBCHEM_CACTVS_HBOND_ACCEPTOR>
14

> <PUBCHEM_CACTVS_HBOND_DONOR>
4

> <PUBCHEM_CACTVS_ROTATABLE_BOND>
12

> <PUBCHEM_CACTVS_SUBSKEYS>
AAADcfB7/AIAAAAAAAAAAAAAAAAAAWJEgAAgQAAAAAAAAEABgAAAHgAQCCAACBzhlgYHuBfMFRCoQQdxfICAgC0XEKABUAGoVECBSApAyCAeAIgPBwLCAGCwMAoAAAAAAAAAAAAAAAAAAAAAAAAAAAAAAA==

> <PUBCHEM_IUPAC_OPENEYE_NAME>
[(2R,3S,5R)-5-(2-amino-6-oxo-1H-purin-9-yl)-3-[[(2S,3S,5R)-5-(4-amino-2-oxo-1,3,5-triazin-1-yl)-3-(dimethylcarbamoyloxy)tetrahydrofuran-2-yl]methoxy-hydroxy-phosphoryl]oxy-tetrahydrofuran-2-yl]methyl N,N-dimethylcarbamate

> <PUBCHEM_IUPAC_CAS_NAME>
N,N-dimethylcarbamic acid [(2R,3S,5R)-5-(2-amino-6-oxo-1H-purin-9-yl)-3-[[(2S,3S,5R)-5-(4-amino-2-oxo-1,3,5-triazin-1-yl)-3-[dimethylamino(oxo)methoxy]-2-oxolanyl]methoxy-hydroxyphosphoryl]oxy-2-oxolanyl]methyl ester

> <PUBCHEM_IUPAC_NAME_MARKUP>
[(2<I>R</I>,3<I>S</I>,5<I>R</I>)-5-(2-amino-6-oxo-1<I>H</I>-purin-9-yl)-3-[[(2<I>S</I>,3<I>S</I>,5<I>R</I>)-5-(4-amino-2-oxo-1,3,5-triazin-1-yl)-3-(dimethylcarbamoyloxy)oxolan-2-yl]methoxy-hydroxyphosphoryl]oxyoxolan-2-yl]methyl <I>N</I>,<I>N</I>-dimethylcarbamate

> <PUBCHEM_IUPAC_NAME>
[(2R,3S,5R)-5-(2-amino-6-oxo-1H-purin-9-yl)-3-[[(2S,3S,5R)-5-(4-amino-2-oxo-1,3,5-triazin-1-yl)-3-(dimethylcarbamoyloxy)oxolan-2-yl]methoxy-hydroxyphosphoryl]oxyoxolan-2-yl]methyl N,N-dimethylcarbamate

> <PUBCHEM_IUPAC_SYSTEMATIC_NAME>
[(2R,3S,5R)-5-(2-azanyl-6-oxidanylidene-1H-purin-9-yl)-3-[[(2S,3S,5R)-5-(4-azanyl-2-oxidanylidene-1,3,5-triazin-1-yl)-3-(dimethylcarbamoyloxy)oxolan-2-yl]methoxy-oxidanyl-phosphoryl]oxy-oxolan-2-yl]methyl N,N-dimethylcarbamate

> <PUBCHEM_IUPAC_TRADITIONAL_NAME>
N,N-dimethylcarbamic acid [(2R,3S,5R)-5-(2-amino-6-keto-1H-purin-9-yl)-3-[[(2S,3S,5R)-5-(4-amino-2-keto-s-triazin-1-yl)-3-(dimethylcarbamoyloxy)tetrahydrofuran-2-yl]methoxy-hydroxy-phosphoryl]oxy-tetrahydrofuran-2-yl]methyl ester

> <PUBCHEM_IUPAC_INCHI>
InChI=1S/C24H34N11O12P/c1-32(2)23(38)42-7-13-12(6-15(44-13)34-9-27-17-18(34)29-21(26)30-19(17)36)47-48(40,41)43-8-14-11(46-24(39)33(3)4)5-16(45-14)35-10-28-20(25)31-22(35)37/h9-16H,5-8H2,1-4H3,(H,40,41)(H2,25,31,37)(H3,26,29,30,36)/t11-,12-,13+,14-,15+,16+/m0/s1

> <PUBCHEM_IUPAC_INCHIKEY>
NWPGFHPFXNENMC-RWHKXBQASA-N

> <PUBCHEM_XLOGP3_AA>
-3.4

> <PUBCHEM_EXACT_MASS>
699.21260256

> <PUBCHEM_MOLECULAR_FORMULA>
C24H34N11O12P

> <PUBCHEM_MOLECULAR_WEIGHT>
699.6

> <PUBCHEM_OPENEYE_CAN_SMILES>
CN(C)C(=O)OCC1C(CC(O1)N2C=NC3=C2N=C(NC3=O)N)OP(=O)(O)OCC4C(CC(O4)N5C=NC(=NC5=O)N)OC(=O)N(C)C

> <PUBCHEM_OPENEYE_ISO_SMILES>
CN(C)C(=O)OC[C@@H]1[C@H](C[C@@H](O1)N2C=NC3=C2N=C(NC3=O)N)OP(=O)(O)OC[C@H]4[C@H](C[C@@H](O4)N5C=NC(=NC5=O)N)OC(=O)N(C)C

> <PUBCHEM_CACTVS_TPSA>
290

> <PUBCHEM_MONOISOTOPIC_WEIGHT>
699.21260256

> <PUBCHEM_TOTAL_CHARGE>
0

> <PUBCHEM_HEAVY_ATOM_COUNT>
48

> <PUBCHEM_ATOM_DEF_STEREO_COUNT>
6

> <PUBCHEM_ATOM_UDEF_STEREO_COUNT>
0

> <PUBCHEM_BOND_DEF_STEREO_COUNT>
0

> <PUBCHEM_BOND_UDEF_STEREO_COUNT>
0

> <PUBCHEM_ISOTOPIC_ATOM_COUNT>
0

> <PUBCHEM_COMPONENT_COUNT>
1

> <PUBCHEM_CACTVS_TAUTO_COUNT>
-1

> <PUBCHEM_COORDINATE_TYPE>
1
5
255

> <PUBCHEM_BONDANNOTATIONS>
28  14  5
14  35  8
14  36  8
32  15  6
15  38  8
15  39  8
16  36  8
16  37  8
17  35  8
17  43  8
19  41  8
19  43  8
20  39  8
20  44  8
21  38  8
21  44  8
26  33  5
29  34  5
35  37  8
37  41  8
25  4  6
30  6  5

$$$$
