 
  -OEChem-10192104172D

 65 65  0     1  0  0  0  0  0999 V2000
    8.2251    1.0111    0.0000 O   0  0  0  0  0  0  0  0  0  0  0  0
    8.5460    0.1294    0.0000 O   0  0  0  0  0  0  0  0  0  0  0  0
    6.6431   -2.6137    0.0000 O   0  0  0  0  0  0  0  0  0  0  0  0
    6.6431    2.6137    0.0000 O   0  0  0  0  0  0  0  0  0  0  0  0
    8.3976   -0.7124    0.0000 O   0  0  0  0  0  0  0  0  0  0  0  0
    7.7945   -1.4311    0.0000 O   0  0  0  0  0  0  0  0  0  0  0  0
    7.6319   -2.4646    0.0000 O   0  0  0  0  0  0  0  0  0  0  0  0
    7.9393    2.0481    0.0000 O   0  0  0  0  0  0  0  0  0  0  0  0
    4.2319   -2.3932    0.0000 O   0  0  0  0  0  0  0  0  0  0  0  0
    4.2319    2.3932    0.0000 O   0  0  0  0  0  0  0  0  0  0  0  0
    2.9010   -0.3706    0.0000 O   0  0  0  0  0  0  0  0  0  0  0  0
    2.9010    0.3706    0.0000 O   0  0  0  0  0  0  0  0  0  0  0  0
    5.9205   -2.7786    0.0000 O   0  0  0  0  0  0  0  0  0  0  0  0
    5.9205    2.7786    0.0000 O   0  0  0  0  0  0  0  0  0  0  0  0
    3.6525   -1.9311    0.0000 O   0  0  0  0  0  0  0  0  0  0  0  0
    3.6525    1.9311    0.0000 O   0  0  0  0  0  0  0  0  0  0  0  0
    6.8188    0.0000    0.0000 C   0  0  0  0  0  0  0  0  0  0  0  0
    6.3849   -0.9010    0.0000 C   0  0  3  0  0  0  0  0  0  0  0  0
    6.3849    0.9010    0.0000 C   0  0  3  0  0  0  0  0  0  0  0  0
    5.4100   -1.1235    0.0000 C   0  0  0  0  0  0  0  0  0  0  0  0
    5.4100    1.1235    0.0000 C   0  0  0  0  0  0  0  0  0  0  0  0
    7.8138    0.0996    0.0000 C   0  0  0  0  0  0  0  0  0  0  0  0
    7.7198   -0.4339    0.0000 C   0  0  0  0  0  0  0  0  0  0  0  0
    4.6282   -0.5000    0.0000 C   0  0  0  0  0  0  0  0  0  0  0  0
    4.6282    0.5000    0.0000 C   0  0  0  0  0  0  0  0  0  0  0  0
    7.0084   -1.6828    0.0000 C   0  0  0  0  0  0  0  0  0  0  0  0
    7.0084    1.6828    0.0000 C   0  0  0  0  0  0  0  0  0  0  0  0
    5.1875   -2.0984    0.0000 C   0  0  0  0  0  0  0  0  0  0  0  0
    5.1875    2.0984    0.0000 C   0  0  0  0  0  0  0  0  0  0  0  0
    3.7272   -0.9339    0.0000 C   0  0  0  0  0  0  0  0  0  0  0  0
    3.7272    0.9339    0.0000 C   0  0  0  0  0  0  0  0  0  0  0  0
    9.2202    1.1106    0.0000 C   0  0  0  0  0  0  0  0  0  0  0  0
    9.4470   -0.3044    0.0000 C   0  0  0  0  0  0  0  0  0  0  0  0
    7.2666   -3.3955    0.0000 C   0  0  0  0  0  0  0  0  0  0  0  0
    7.2666    3.3955    0.0000 C   0  0  0  0  0  0  0  0  0  0  0  0
    4.0094   -3.3681    0.0000 C   0  0  0  0  0  0  0  0  0  0  0  0
    4.0094    3.3681    0.0000 C   0  0  0  0  0  0  0  0  0  0  0  0
    2.0000   -0.8044    0.0000 C   0  0  0  0  0  0  0  0  0  0  0  0
    2.0000    0.8044    0.0000 C   0  0  0  0  0  0  0  0  0  0  0  0
    6.1802   -1.4862    0.0000 H   0  0  0  0  0  0  0  0  0  0  0  0
    6.1802    1.4862    0.0000 H   0  0  0  0  0  0  0  0  0  0  0  0
    9.2819    0.4937    0.0000 H   0  0  0  0  0  0  0  0  0  0  0  0
    9.8371    1.1724    0.0000 H   0  0  0  0  0  0  0  0  0  0  0  0
    9.1584    1.7276    0.0000 H   0  0  0  0  0  0  0  0  0  0  0  0
    9.1780   -0.8630    0.0000 H   0  0  0  0  0  0  0  0  0  0  0  0
   10.0056   -0.5735    0.0000 H   0  0  0  0  0  0  0  0  0  0  0  0
    9.7160    0.2542    0.0000 H   0  0  0  0  0  0  0  0  0  0  0  0
    6.7818   -3.7821    0.0000 H   0  0  0  0  0  0  0  0  0  0  0  0
    7.6531   -3.8802    0.0000 H   0  0  0  0  0  0  0  0  0  0  0  0
    7.7513   -3.0089    0.0000 H   0  0  0  0  0  0  0  0  0  0  0  0
    7.7513    3.0089    0.0000 H   0  0  0  0  0  0  0  0  0  0  0  0
    7.6531    3.8802    0.0000 H   0  0  0  0  0  0  0  0  0  0  0  0
    6.7818    3.7821    0.0000 H   0  0  0  0  0  0  0  0  0  0  0  0
    3.4049   -3.2301    0.0000 H   0  0  0  0  0  0  0  0  0  0  0  0
    3.8714   -3.9726    0.0000 H   0  0  0  0  0  0  0  0  0  0  0  0
    4.6138   -3.5061    0.0000 H   0  0  0  0  0  0  0  0  0  0  0  0
    4.6138    3.5061    0.0000 H   0  0  0  0  0  0  0  0  0  0  0  0
    3.8714    3.9726    0.0000 H   0  0  0  0  0  0  0  0  0  0  0  0
    3.4049    3.2301    0.0000 H   0  0  0  0  0  0  0  0  0  0  0  0
    1.7310   -0.2458    0.0000 H   0  0  0  0  0  0  0  0  0  0  0  0
    1.4414   -1.0735    0.0000 H   0  0  0  0  0  0  0  0  0  0  0  0
    2.2690   -1.3631    0.0000 H   0  0  0  0  0  0  0  0  0  0  0  0
    2.2690    1.3631    0.0000 H   0  0  0  0  0  0  0  0  0  0  0  0
    1.4414    1.0735    0.0000 H   0  0  0  0  0  0  0  0  0  0  0  0
    1.7310    0.2458    0.0000 H   0  0  0  0  0  0  0  0  0  0  0  0
  1 22  1  0  0  0  0
  1 32  1  0  0  0  0
  2 23  1  0  0  0  0
  2 33  1  0  0  0  0
  3 26  1  0  0  0  0
  3 34  1  0  0  0  0
  4 27  1  0  0  0  0
  4 35  1  0  0  0  0
  5 22  2  0  0  0  0
  6 23  2  0  0  0  0
  7 26  2  0  0  0  0
  8 27  2  0  0  0  0
  9 28  1  0  0  0  0
  9 36  1  0  0  0  0
 10 29  1  0  0  0  0
 10 37  1  0  0  0  0
 11 30  1  0  0  0  0
 11 38  1  0  0  0  0
 12 31  1  0  0  0  0
 12 39  1  0  0  0  0
 13 28  2  0  0  0  0
 14 29  2  0  0  0  0
 15 30  2  0  0  0  0
 16 31  2  0  0  0  0
 17 18  1  0  0  0  0
 17 19  1  0  0  0  0
 17 22  1  0  0  0  0
 17 23  1  0  0  0  0
 18 20  1  0  0  0  0
 18 26  1  0  0  0  0
 18 40  1  0  0  0  0
 19 21  1  0  0  0  0
 19 27  1  0  0  0  0
 19 41  1  0  0  0  0
 20 24  2  0  0  0  0
 20 28  1  0  0  0  0
 21 25  2  0  0  0  0
 21 29  1  0  0  0  0
 24 25  1  0  0  0  0
 24 30  1  0  0  0  0
 25 31  1  0  0  0  0
 32 42  1  0  0  0  0
 32 43  1  0  0  0  0
 32 44  1  0  0  0  0
 33 45  1  0  0  0  0
 33 46  1  0  0  0  0
 33 47  1  0  0  0  0
 34 48  1  0  0  0  0
 34 49  1  0  0  0  0
 34 50  1  0  0  0  0
 35 51  1  0  0  0  0
 35 52  1  0  0  0  0
 35 53  1  0  0  0  0
 36 54  1  0  0  0  0
 36 55  1  0  0  0  0
 36 56  1  0  0  0  0
 37 57  1  0  0  0  0
 37 58  1  0  0  0  0
 37 59  1  0  0  0  0
 38 60  1  0  0  0  0
 38 61  1  0  0  0  0
 38 62  1  0  0  0  0
 39 63  1  0  0  0  0
 39 64  1  0  0  0  0
 39 65  1  0  0  0  0
M  END
> <PUBCHEM_COMPOUND_CID>
4156249

> <PUBCHEM_COMPOUND_CANONICALIZED>
1

> <PUBCHEM_CACTVS_COMPLEXITY>
1070

> <PUBCHEM_CACTVS_HBOND_ACCEPTOR>
16

> <PUBCHEM_CACTVS_HBOND_DONOR>
0

> <PUBCHEM_CACTVS_ROTATABLE_BOND>
16

> <PUBCHEM_CACTVS_SUBSKEYS>
AAADceB4PgAAAAAAAAAAAAAAAAAAAAAAAAAAAAAABAAAAAAAAAAAGgAAAAAADwCAgAICCAAABACIAgDQCAAAAAAgAAAACAEAAEgIBBYIIAAAEAAF4AAIoQPL7jiPgAAAAAAAAAAAAAAAAAAAAAAAAAAAAA==

> <PUBCHEM_IUPAC_OPENEYE_NAME>
octamethyl cyclohepta-3,5-diene-1,1,2,3,4,5,6,7-octacarboxylate

> <PUBCHEM_IUPAC_CAS_NAME>
cyclohepta-3,5-diene-1,1,2,3,4,5,6,7-octacarboxylic acid octamethyl ester

> <PUBCHEM_IUPAC_NAME_MARKUP>
octamethyl cyclohepta-3,5-diene-1,1,2,3,4,5,6,7-octacarboxylate

> <PUBCHEM_IUPAC_NAME>
octamethyl cyclohepta-3,5-diene-1,1,2,3,4,5,6,7-octacarboxylate

> <PUBCHEM_IUPAC_SYSTEMATIC_NAME>
octamethyl cyclohepta-3,5-diene-1,1,2,3,4,5,6,7-octacarboxylate

> <PUBCHEM_IUPAC_TRADITIONAL_NAME>
cyclohepta-3,5-diene-1,1,2,3,4,5,6,7-octacarboxylic acid octamethyl ester

> <PUBCHEM_IUPAC_INCHI>
InChI=1S/C23H26O16/c1-32-15(24)9-10(16(25)33-2)12(18(27)35-4)14(20(29)37-6)23(21(30)38-7,22(31)39-8)13(19(28)36-5)11(9)17(26)34-3/h13-14H,1-8H3

> <PUBCHEM_IUPAC_INCHIKEY>
BOESMBPMYRRSFI-UHFFFAOYSA-N

> <PUBCHEM_XLOGP3_AA>
-0.6

> <PUBCHEM_EXACT_MASS>
558.12208474

> <PUBCHEM_MOLECULAR_FORMULA>
C23H26O16

> <PUBCHEM_MOLECULAR_WEIGHT>
558.4

> <PUBCHEM_OPENEYE_CAN_SMILES>
COC(=O)C1C(=C(C(=C(C(C1(C(=O)OC)C(=O)OC)C(=O)OC)C(=O)OC)C(=O)OC)C(=O)OC)C(=O)OC

> <PUBCHEM_OPENEYE_ISO_SMILES>
COC(=O)C1C(=C(C(=C(C(C1(C(=O)OC)C(=O)OC)C(=O)OC)C(=O)OC)C(=O)OC)C(=O)OC)C(=O)OC

> <PUBCHEM_CACTVS_TPSA>
210

> <PUBCHEM_MONOISOTOPIC_WEIGHT>
558.12208474

> <PUBCHEM_TOTAL_CHARGE>
0

> <PUBCHEM_HEAVY_ATOM_COUNT>
39

> <PUBCHEM_ATOM_DEF_STEREO_COUNT>
0

> <PUBCHEM_ATOM_UDEF_STEREO_COUNT>
2

> <PUBCHEM_BOND_DEF_STEREO_COUNT>
0

> <PUBCHEM_BOND_UDEF_STEREO_COUNT>
0

> <PUBCHEM_ISOTOPIC_ATOM_COUNT>
0

> <PUBCHEM_COMPONENT_COUNT>
1

> <PUBCHEM_CACTVS_TAUTO_COUNT>
-1

> <PUBCHEM_COORDINATE_TYPE>
1
5
255

> <PUBCHEM_BONDANNOTATIONS>
18  26  3
19  27  3

$$$$
