 
  -OEChem-10192104422D

 52 55  0     1  0  0  0  0  0999 V2000
    4.3467   -0.0037    0.0000 O   0  0  0  0  0  0  0  0  0  0  0  0
    7.4153   -0.0037    0.0000 O   0  0  0  0  0  0  0  0  0  0  0  0
    6.2727    2.2916    0.0000 O   0  0  0  0  0  0  0  0  0  0  0  0
    2.9782    1.2211    0.0000 O   0  0  0  0  0  0  0  0  0  0  0  0
    5.4960   -2.2971    0.0000 O   0  0  0  0  0  0  0  0  0  0  0  0
    3.6984    4.6095    0.0000 O   0  0  0  0  0  0  0  0  0  0  0  0
    8.0744   -4.6106    0.0000 O   0  0  0  0  0  0  0  0  0  0  0  0
    5.8855    0.4963    0.0000 C   0  0  2  0  0  0  0  0  0  0  0  0
    5.8855   -0.5037    0.0000 C   0  0  2  0  0  0  0  0  0  0  0  0
    4.9344    0.8053    0.0000 C   0  0  2  0  0  0  0  0  0  0  0  0
    6.8317   -0.8085    0.0000 C   0  0  2  0  0  0  0  0  0  0  0  0
    4.9344   -0.8128    0.0000 C   0  0  0  0  0  0  0  0  0  0  0  0
    6.8317    0.8010    0.0000 C   0  0  0  0  0  0  0  0  0  0  0  0
    4.6254    1.7563    0.0000 C   0  0  0  0  0  0  0  0  0  0  0  0
    7.1424   -1.7590    0.0000 C   0  0  0  0  0  0  0  0  0  0  0  0
    5.2946    2.4995    0.0000 C   0  0  0  0  0  0  0  0  0  0  0  0
    3.6473    1.9642    0.0000 C   0  0  0  0  0  0  0  0  0  0  0  0
    6.4745   -2.5033    0.0000 C   0  0  0  0  0  0  0  0  0  0  0  0
    8.1209   -1.9652    0.0000 C   0  0  0  0  0  0  0  0  0  0  0  0
    4.9855    3.4505    0.0000 C   0  0  0  0  0  0  0  0  0  0  0  0
    3.3383    2.9153    0.0000 C   0  0  0  0  0  0  0  0  0  0  0  0
    6.7852   -3.4538    0.0000 C   0  0  0  0  0  0  0  0  0  0  0  0
    8.4316   -2.9157    0.0000 C   0  0  0  0  0  0  0  0  0  0  0  0
    4.0074    3.6584    0.0000 C   0  0  0  0  0  0  0  0  0  0  0  0
    7.7637   -3.6600    0.0000 C   0  0  0  0  0  0  0  0  0  0  0  0
    6.9418    3.0347    0.0000 C   0  0  0  0  0  0  0  0  0  0  0  0
    2.0000    1.4290    0.0000 C   0  0  0  0  0  0  0  0  0  0  0  0
    4.8282   -3.0414    0.0000 C   0  0  0  0  0  0  0  0  0  0  0  0
    5.8866    1.3463    0.0000 H   0  0  0  0  0  0  0  0  0  0  0  0
    5.8866   -1.3537    0.0000 H   0  0  0  0  0  0  0  0  0  0  0  0
    4.0949    0.9382    0.0000 H   0  0  0  0  0  0  0  0  0  0  0  0
    7.6714   -0.9404    0.0000 H   0  0  0  0  0  0  0  0  0  0  0  0
    4.3975   -1.1228    0.0000 H   0  0  0  0  0  0  0  0  0  0  0  0
    5.1866   -1.3792    0.0000 H   0  0  0  0  0  0  0  0  0  0  0  0
    7.3691    1.1102    0.0000 H   0  0  0  0  0  0  0  0  0  0  0  0
    6.5807    1.3679    0.0000 H   0  0  0  0  0  0  0  0  0  0  0  0
    8.5350   -1.5037    0.0000 H   0  0  0  0  0  0  0  0  0  0  0  0
    5.4004    3.9113    0.0000 H   0  0  0  0  0  0  0  0  0  0  0  0
    2.7318    3.0442    0.0000 H   0  0  0  0  0  0  0  0  0  0  0  0
    6.3711   -3.9153    0.0000 H   0  0  0  0  0  0  0  0  0  0  0  0
    9.0382   -3.0436    0.0000 H   0  0  0  0  0  0  0  0  0  0  0  0
    7.4026    2.6198    0.0000 H   0  0  0  0  0  0  0  0  0  0  0  0
    7.3567    3.4955    0.0000 H   0  0  0  0  0  0  0  0  0  0  0  0
    6.4811    3.4496    0.0000 H   0  0  0  0  0  0  0  0  0  0  0  0
    2.1289    2.0355    0.0000 H   0  0  0  0  0  0  0  0  0  0  0  0
    1.3936    1.5579    0.0000 H   0  0  0  0  0  0  0  0  0  0  0  0
    1.8711    0.8226    0.0000 H   0  0  0  0  0  0  0  0  0  0  0  0
    4.3667   -2.6273    0.0000 H   0  0  0  0  0  0  0  0  0  0  0  0
    4.4141   -3.5028    0.0000 H   0  0  0  0  0  0  0  0  0  0  0  0
    5.2897   -3.4554    0.0000 H   0  0  0  0  0  0  0  0  0  0  0  0
    3.0919    4.7384    0.0000 H   0  0  0  0  0  0  0  0  0  0  0  0
    8.6810   -4.7384    0.0000 H   0  0  0  0  0  0  0  0  0  0  0  0
  1 10  1  0  0  0  0
  1 12  1  0  0  0  0
  2 11  1  0  0  0  0
  2 13  1  0  0  0  0
  3 16  1  0  0  0  0
  3 26  1  0  0  0  0
  4 17  1  0  0  0  0
  4 27  1  0  0  0  0
  5 18  1  0  0  0  0
  5 28  1  0  0  0  0
  6 24  1  0  0  0  0
  6 51  1  0  0  0  0
  7 25  1  0  0  0  0
  7 52  1  0  0  0  0
  8  9  1  0  0  0  0
  8 10  1  0  0  0  0
  8 13  1  0  0  0  0
  8 29  1  1  0  0  0
  9 11  1  0  0  0  0
  9 12  1  0  0  0  0
  9 30  1  1  0  0  0
 10 14  1  0  0  0  0
 10 31  1  6  0  0  0
 11 15  1  0  0  0  0
 11 32  1  6  0  0  0
 12 33  1  0  0  0  0
 12 34  1  0  0  0  0
 13 35  1  0  0  0  0
 13 36  1  0  0  0  0
 14 16  2  0  0  0  0
 14 17  1  0  0  0  0
 15 18  2  0  0  0  0
 15 19  1  0  0  0  0
 16 20  1  0  0  0  0
 17 21  2  0  0  0  0
 18 22  1  0  0  0  0
 19 23  2  0  0  0  0
 19 37  1  0  0  0  0
 20 24  2  0  0  0  0
 20 38  1  0  0  0  0
 21 24  1  0  0  0  0
 21 39  1  0  0  0  0
 22 25  2  0  0  0  0
 22 40  1  0  0  0  0
 23 25  1  0  0  0  0
 23 41  1  0  0  0  0
 26 42  1  0  0  0  0
 26 43  1  0  0  0  0
 26 44  1  0  0  0  0
 27 45  1  0  0  0  0
 27 46  1  0  0  0  0
 27 47  1  0  0  0  0
 28 48  1  0  0  0  0
 28 49  1  0  0  0  0
 28 50  1  0  0  0  0
M  END
> <PUBCHEM_COMPOUND_CID>
102313509

> <PUBCHEM_COMPOUND_CANONICALIZED>
1

> <PUBCHEM_CACTVS_COMPLEXITY>
503

> <PUBCHEM_CACTVS_HBOND_ACCEPTOR>
7

> <PUBCHEM_CACTVS_HBOND_DONOR>
2

> <PUBCHEM_CACTVS_ROTATABLE_BOND>
5

> <PUBCHEM_CACTVS_SUBSKEYS>
AAADceB4OAAAAAAAAAAAAAAAAAAAASJAAAAwYAAAAAASAAABQAAAGgAACAAADRSgmAIyBoAABgCAAiBCAAACCAAgIAAIiAAGCIgMJyKGMRqCcCAlwBUIuAfA4PwOoAAACAAIAABAAAAQABAAAAAAAAAAAA==

> <PUBCHEM_IUPAC_OPENEYE_NAME>
4-[(3R,3aS,6R,6aS)-3-(4-hydroxy-2-methoxy-phenyl)-1,3,3a,4,6,6a-hexahydrofuro[3,4-c]furan-6-yl]-3,5-dimethoxy-phenol

> <PUBCHEM_IUPAC_CAS_NAME>
4-[(3R,3aS,6R,6aS)-3-(4-hydroxy-2-methoxyphenyl)-1,3,3a,4,6,6a-hexahydrofuro[3,4-c]furan-6-yl]-3,5-dimethoxyphenol

> <PUBCHEM_IUPAC_NAME_MARKUP>
4-[(3<I>R</I>,3<I>a</I><I>S</I>,6<I>R</I>,6<I>a</I><I>S</I>)-3-(4-hydroxy-2-methoxyphenyl)-1,3,3<I>a</I>,4,6,6<I>a</I>-hexahydrofuro[3,4-c]furan-6-yl]-3,5-dimethoxyphenol

> <PUBCHEM_IUPAC_NAME>
4-[(3R,3aS,6R,6aS)-3-(4-hydroxy-2-methoxyphenyl)-1,3,3a,4,6,6a-hexahydrofuro[3,4-c]furan-6-yl]-3,5-dimethoxyphenol

> <PUBCHEM_IUPAC_SYSTEMATIC_NAME>
4-[(3R,3aS,6R,6aS)-3-(2-methoxy-4-oxidanyl-phenyl)-1,3,3a,4,6,6a-hexahydrofuro[3,4-c]furan-6-yl]-3,5-dimethoxy-phenol

> <PUBCHEM_IUPAC_TRADITIONAL_NAME>
4-[(3R,3aS,6R,6aS)-3-(4-hydroxy-2-methoxy-phenyl)-1,3,3a,4,6,6a-hexahydrofuro[3,4-c]furan-6-yl]-3,5-dimethoxy-phenol

> <PUBCHEM_IUPAC_INCHI>
InChI=1S/C21H24O7/c1-24-16-6-11(22)4-5-13(16)20-14-9-28-21(15(14)10-27-20)19-17(25-2)7-12(23)8-18(19)26-3/h4-8,14-15,20-23H,9-10H2,1-3H3/t14-,15-,20+,21-/m1/s1

> <PUBCHEM_IUPAC_INCHIKEY>
KZUOVQHLCDKEEE-SORVUCRQSA-N

> <PUBCHEM_XLOGP3_AA>
2.3

> <PUBCHEM_EXACT_MASS>
388.15220310

> <PUBCHEM_MOLECULAR_FORMULA>
C21H24O7

> <PUBCHEM_MOLECULAR_WEIGHT>
388.4

> <PUBCHEM_OPENEYE_CAN_SMILES>
COC1=CC(=CC(=C1C2C3COC(C3CO2)C4=C(C=C(C=C4)O)OC)OC)O

> <PUBCHEM_OPENEYE_ISO_SMILES>
COC1=CC(=CC(=C1[C@H]2[C@@H]3CO[C@H]([C@@H]3CO2)C4=C(C=C(C=C4)O)OC)OC)O

> <PUBCHEM_CACTVS_TPSA>
86.6

> <PUBCHEM_MONOISOTOPIC_WEIGHT>
388.15220310

> <PUBCHEM_TOTAL_CHARGE>
0

> <PUBCHEM_HEAVY_ATOM_COUNT>
28

> <PUBCHEM_ATOM_DEF_STEREO_COUNT>
4

> <PUBCHEM_ATOM_UDEF_STEREO_COUNT>
0

> <PUBCHEM_BOND_DEF_STEREO_COUNT>
0

> <PUBCHEM_BOND_UDEF_STEREO_COUNT>
0

> <PUBCHEM_ISOTOPIC_ATOM_COUNT>
0

> <PUBCHEM_COMPONENT_COUNT>
1

> <PUBCHEM_CACTVS_TAUTO_COUNT>
-1

> <PUBCHEM_COORDINATE_TYPE>
1
5
255

> <PUBCHEM_BONDANNOTATIONS>
10  31  6
11  32  6
14  16  8
14  17  8
15  18  8
15  19  8
16  20  8
17  21  8
18  22  8
19  23  8
20  24  8
21  24  8
22  25  8
23  25  8
8  29  5
9  30  5

$$$$
