 
  -OEChem-10192103402D

 73 74  0     1  0  0  0  0  0999 V2000
    8.5991    2.6550    0.0000 S   0  0  0  0  0  0  0  0  0  0  0  0
    9.4651    1.1550    0.0000 S   0  0  0  0  0  0  0  0  0  0  0  0
    4.2690   -2.8450    0.0000 O   0  0  0  0  0  0  0  0  0  0  0  0
    6.0010   -2.8450    0.0000 O   0  0  0  0  0  0  0  0  0  0  0  0
    6.0010   -4.8450    0.0000 O   0  0  0  0  0  0  0  0  0  0  0  0
    4.2690   -5.8450    0.0000 O   0  0  0  0  0  0  0  0  0  0  0  0
    2.5369   -4.8450    0.0000 O   0  0  0  0  0  0  0  0  0  0  0  0
    7.7331   -1.8450    0.0000 O   0  0  0  0  0  0  0  0  0  0  0  0
    6.0010    0.1550    0.0000 O   0  0  0  0  0  0  0  0  0  0  0  0
    4.2690   -1.8450    0.0000 O   0  0  0  0  0  0  0  0  0  0  0  0
    2.5369   -1.8450    0.0000 O   0  0  0  0  0  0  0  0  0  0  0  0
    4.2690    0.1550    0.0000 O   0  0  0  0  0  0  0  0  0  0  0  0
    6.0010    6.1550    0.0000 O   0  0  0  0  0  0  0  0  0  0  0  0
    7.7331    1.1550    0.0000 N   0  0  0  0  0  0  0  0  0  0  0  0
    6.0010    4.1550    0.0000 N   0  0  0  0  0  0  0  0  0  0  0  0
    5.1350   -4.3450    0.0000 C   0  0  2  0  0  0  0  0  0  0  0  0
    4.2690   -4.8450    0.0000 C   0  0  2  0  0  0  0  0  0  0  0  0
    5.1350   -3.3450    0.0000 C   0  0  1  0  0  0  0  0  0  0  0  0
    3.4030   -4.3450    0.0000 C   0  0  2  0  0  0  0  0  0  0  0  0
    3.4030   -3.3450    0.0000 C   0  0  1  0  0  0  0  0  0  0  0  0
    6.0010   -1.8450    0.0000 C   0  0  1  0  0  0  0  0  0  0  0  0
    6.8671   -1.3450    0.0000 C   0  0  1  0  0  0  0  0  0  0  0  0
    6.8671   -0.3450    0.0000 C   0  0  2  0  0  0  0  0  0  0  0  0
    5.1350   -1.3450    0.0000 C   0  0  1  0  0  0  0  0  0  0  0  0
    2.5369   -2.8450    0.0000 C   0  0  0  0  0  0  0  0  0  0  0  0
    7.7331    0.1550    0.0000 C   0  0  0  0  0  0  0  0  0  0  0  0
    5.1350   -0.3450    0.0000 C   0  0  0  0  0  0  0  0  0  0  0  0
    6.8671    1.6550    0.0000 C   0  0  0  0  0  0  0  0  0  0  0  0
    6.8671    2.6550    0.0000 C   0  0  0  0  0  0  0  0  0  0  0  0
    6.0010    3.1550    0.0000 C   0  0  0  0  0  0  0  0  0  0  0  0
    5.1350    4.6550    0.0000 C   0  0  0  0  0  0  0  0  0  0  0  0
    6.8671    4.6550    0.0000 C   0  0  0  0  0  0  0  0  0  0  0  0
    5.1350    5.6550    0.0000 C   0  0  0  0  0  0  0  0  0  0  0  0
    6.8671    5.6550    0.0000 C   0  0  0  0  0  0  0  0  0  0  0  0
    8.5991    1.6550    0.0000 C   0  0  0  0  0  0  0  0  0  0  0  0
    5.1350   -4.9650    0.0000 H   0  0  0  0  0  0  0  0  0  0  0  0
    3.7320   -5.1550    0.0000 H   0  0  0  0  0  0  0  0  0  0  0  0
    5.1350   -2.7250    0.0000 H   0  0  0  0  0  0  0  0  0  0  0  0
    3.4030   -4.9650    0.0000 H   0  0  0  0  0  0  0  0  0  0  0  0
    3.4030   -2.7250    0.0000 H   0  0  0  0  0  0  0  0  0  0  0  0
    6.5380   -2.1550    0.0000 H   0  0  0  0  0  0  0  0  0  0  0  0
    7.4040   -1.0350    0.0000 H   0  0  0  0  0  0  0  0  0  0  0  0
    6.3301   -0.6550    0.0000 H   0  0  0  0  0  0  0  0  0  0  0  0
    5.1350   -1.9650    0.0000 H   0  0  0  0  0  0  0  0  0  0  0  0
    1.9264   -2.7373    0.0000 H   0  0  0  0  0  0  0  0  0  0  0  0
    2.3249   -3.4276    0.0000 H   0  0  0  0  0  0  0  0  0  0  0  0
    7.9451   -0.4276    0.0000 H   0  0  0  0  0  0  0  0  0  0  0  0
    8.3437    0.2627    0.0000 H   0  0  0  0  0  0  0  0  0  0  0  0
    6.0010   -5.4650    0.0000 H   0  0  0  0  0  0  0  0  0  0  0  0
    3.7320   -6.1550    0.0000 H   0  0  0  0  0  0  0  0  0  0  0  0
    5.7456   -0.4527    0.0000 H   0  0  0  0  0  0  0  0  0  0  0  0
    5.3471    0.2376    0.0000 H   0  0  0  0  0  0  0  0  0  0  0  0
    2.0000   -4.5350    0.0000 H   0  0  0  0  0  0  0  0  0  0  0  0
    6.2565    1.7627    0.0000 H   0  0  0  0  0  0  0  0  0  0  0  0
    6.6550    1.0724    0.0000 H   0  0  0  0  0  0  0  0  0  0  0  0
    7.4776    2.5473    0.0000 H   0  0  0  0  0  0  0  0  0  0  0  0
    7.0791    3.2376    0.0000 H   0  0  0  0  0  0  0  0  0  0  0  0
    5.3905    3.2627    0.0000 H   0  0  0  0  0  0  0  0  0  0  0  0
    5.7890    2.5724    0.0000 H   0  0  0  0  0  0  0  0  0  0  0  0
    8.2700   -1.5350    0.0000 H   0  0  0  0  0  0  0  0  0  0  0  0
    6.0010    0.7750    0.0000 H   0  0  0  0  0  0  0  0  0  0  0  0
    4.5244    4.7627    0.0000 H   0  0  0  0  0  0  0  0  0  0  0  0
    4.9230    4.0724    0.0000 H   0  0  0  0  0  0  0  0  0  0  0  0
    7.0791    4.0724    0.0000 H   0  0  0  0  0  0  0  0  0  0  0  0
    7.4776    4.7627    0.0000 H   0  0  0  0  0  0  0  0  0  0  0  0
    3.7320   -1.5350    0.0000 H   0  0  0  0  0  0  0  0  0  0  0  0
    2.0000   -1.5350    0.0000 H   0  0  0  0  0  0  0  0  0  0  0  0
    4.9230    6.2376    0.0000 H   0  0  0  0  0  0  0  0  0  0  0  0
    4.5244    5.5473    0.0000 H   0  0  0  0  0  0  0  0  0  0  0  0
    7.4776    5.5473    0.0000 H   0  0  0  0  0  0  0  0  0  0  0  0
    7.0791    6.2376    0.0000 H   0  0  0  0  0  0  0  0  0  0  0  0
    4.2690    0.7750    0.0000 H   0  0  0  0  0  0  0  0  0  0  0  0
    9.1360    2.9650    0.0000 H   0  0  0  0  0  0  0  0  0  0  0  0
  1 35  1  0  0  0  0
  1 73  1  0  0  0  0
  2 35  2  0  0  0  0
  3 18  1  0  0  0  0
  3 20  1  0  0  0  0
 18  4  1  1  0  0  0
 21  4  1  6  0  0  0
 16  5  1  6  0  0  0
  5 49  1  0  0  0  0
 17  6  1  1  0  0  0
  6 50  1  0  0  0  0
 19  7  1  1  0  0  0
  7 53  1  0  0  0  0
 22  8  1  1  0  0  0
  8 60  1  0  0  0  0
 23  9  1  1  0  0  0
  9 61  1  0  0  0  0
 24 10  1  6  0  0  0
 10 66  1  0  0  0  0
 11 25  1  0  0  0  0
 11 67  1  0  0  0  0
 12 27  1  0  0  0  0
 12 72  1  0  0  0  0
 13 33  1  0  0  0  0
 13 34  1  0  0  0  0
 14 26  1  0  0  0  0
 14 28  1  0  0  0  0
 14 35  1  0  0  0  0
 15 30  1  0  0  0  0
 15 31  1  0  0  0  0
 15 32  1  0  0  0  0
 16 17  1  0  0  0  0
 16 18  1  0  0  0  0
 16 36  1  0  0  0  0
 17 19  1  0  0  0  0
 17 37  1  0  0  0  0
 18 38  1  0  0  0  0
 19 20  1  0  0  0  0
 19 39  1  0  0  0  0
 20 25  1  1  0  0  0
 20 40  1  0  0  0  0
 21 22  1  0  0  0  0
 21 24  1  0  0  0  0
 21 41  1  0  0  0  0
 22 23  1  0  0  0  0
 22 42  1  0  0  0  0
 23 26  1  0  0  0  0
 23 43  1  0  0  0  0
 24 27  1  0  0  0  0
 24 44  1  0  0  0  0
 25 45  1  0  0  0  0
 25 46  1  0  0  0  0
 26 47  1  0  0  0  0
 26 48  1  0  0  0  0
 27 51  1  0  0  0  0
 27 52  1  0  0  0  0
 28 29  1  0  0  0  0
 28 54  1  0  0  0  0
 28 55  1  0  0  0  0
 29 30  1  0  0  0  0
 29 56  1  0  0  0  0
 29 57  1  0  0  0  0
 30 58  1  0  0  0  0
 30 59  1  0  0  0  0
 31 33  1  0  0  0  0
 31 62  1  0  0  0  0
 31 63  1  0  0  0  0
 32 34  1  0  0  0  0
 32 64  1  0  0  0  0
 32 65  1  0  0  0  0
 33 68  1  0  0  0  0
 33 69  1  0  0  0  0
 34 70  1  0  0  0  0
 34 71  1  0  0  0  0
M  END
> <PUBCHEM_COMPOUND_CID>
101630310

> <PUBCHEM_COMPOUND_CANONICALIZED>
1

> <PUBCHEM_CACTVS_COMPLEXITY>
634

> <PUBCHEM_CACTVS_HBOND_ACCEPTOR>
14

> <PUBCHEM_CACTVS_HBOND_DONOR>
9

> <PUBCHEM_CACTVS_ROTATABLE_BOND>
13

> <PUBCHEM_CACTVS_SUBSKEYS>
AAADcfB7PABgAAAAAAAAAAAAAAAAAAAAAAAsSAAAAAAAAAAAAAAAHgQACAAACBTxgAcACAMABgQEAAAAAAAAAAAAAAgAAAAIAAATEAIAwAAnQAAHAACXAAHwcA4AAAAAAAAAAAAAAAAAAAAAAAAAAAAAAA==

> <PUBCHEM_IUPAC_OPENEYE_NAME>
3-morpholinopropyl-[(2S,3R,4R,5R)-2,3,5,6-tetrahydroxy-4-[(2S,3R,4S,5R,6R)-3,4,5-trihydroxy-6-(hydroxymethyl)tetrahydropyran-2-yl]oxy-hexyl]carbamodithioic acid

> <PUBCHEM_IUPAC_CAS_NAME>
3-(4-morpholinyl)propyl-[(2S,3R,4R,5R)-2,3,5,6-tetrahydroxy-4-[[(2S,3R,4S,5R,6R)-3,4,5-trihydroxy-6-(hydroxymethyl)-2-oxanyl]oxy]hexyl]carbamodithioic acid

> <PUBCHEM_IUPAC_NAME_MARKUP>
3-morpholin-4-ylpropyl-[(2<I>S</I>,3<I>R</I>,4<I>R</I>,5<I>R</I>)-2,3,5,6-tetrahydroxy-4-[(2<I>S</I>,3<I>R</I>,4<I>S</I>,5<I>R</I>,6<I>R</I>)-3,4,5-trihydroxy-6-(hydroxymethyl)oxan-2-yl]oxyhexyl]carbamodithioic acid

> <PUBCHEM_IUPAC_NAME>
3-morpholin-4-ylpropyl-[(2S,3R,4R,5R)-2,3,5,6-tetrahydroxy-4-[(2S,3R,4S,5R,6R)-3,4,5-trihydroxy-6-(hydroxymethyl)oxan-2-yl]oxyhexyl]carbamodithioic acid

> <PUBCHEM_IUPAC_SYSTEMATIC_NAME>
[(2S,3R,4R,5R)-4-[(2S,3R,4S,5R,6R)-6-(hydroxymethyl)-3,4,5-tris(oxidanyl)oxan-2-yl]oxy-2,3,5,6-tetrakis(oxidanyl)hexyl]-(3-morpholin-4-ylpropyl)carbamodithioic acid

> <PUBCHEM_IUPAC_TRADITIONAL_NAME>
3-morpholinopropyl-[(2S,3R,4R,5R)-2,3,5,6-tetrahydroxy-4-[(2S,3R,4S,5R,6R)-3,4,5-trihydroxy-6-methylol-tetrahydropyran-2-yl]oxy-hexyl]carbamodithioic acid

> <PUBCHEM_IUPAC_INCHI>
InChI=1S/C20H38N2O11S2/c23-9-12(26)18(33-19-17(30)16(29)15(28)13(10-24)32-19)14(27)11(25)8-22(20(34)35)3-1-2-21-4-6-31-7-5-21/h11-19,23-30H,1-10H2,(H,34,35)/t11-,12+,13+,14+,15-,16-,17+,18+,19-/m0/s1

> <PUBCHEM_IUPAC_INCHIKEY>
UKLHRNKNSQIHPF-GSKLIESDSA-N

> <PUBCHEM_XLOGP3_AA>
-3.8

> <PUBCHEM_EXACT_MASS>
546.19170238

> <PUBCHEM_MOLECULAR_FORMULA>
C20H38N2O11S2

> <PUBCHEM_MOLECULAR_WEIGHT>
546.7

> <PUBCHEM_OPENEYE_CAN_SMILES>
C1COCCN1CCCN(CC(C(C(C(CO)O)OC2C(C(C(C(O2)CO)O)O)O)O)O)C(=S)S

> <PUBCHEM_OPENEYE_ISO_SMILES>
C1COCCN1CCCN(C[C@@H]([C@H]([C@@H]([C@@H](CO)O)O[C@H]2[C@@H]([C@H]([C@H]([C@H](O2)CO)O)O)O)O)O)C(=S)S

> <PUBCHEM_CACTVS_TPSA>
229

> <PUBCHEM_MONOISOTOPIC_WEIGHT>
546.19170238

> <PUBCHEM_TOTAL_CHARGE>
0

> <PUBCHEM_HEAVY_ATOM_COUNT>
35

> <PUBCHEM_ATOM_DEF_STEREO_COUNT>
9

> <PUBCHEM_ATOM_UDEF_STEREO_COUNT>
0

> <PUBCHEM_BOND_DEF_STEREO_COUNT>
0

> <PUBCHEM_BOND_UDEF_STEREO_COUNT>
0

> <PUBCHEM_ISOTOPIC_ATOM_COUNT>
0

> <PUBCHEM_COMPONENT_COUNT>
1

> <PUBCHEM_CACTVS_TAUTO_COUNT>
-1

> <PUBCHEM_COORDINATE_TYPE>
1
5
255

> <PUBCHEM_BONDANNOTATIONS>
24  10  6
20  25  5
18  4  5
21  4  6
16  5  6
17  6  5
19  7  5
22  8  5
23  9  5

$$$$
