 
  -OEChem-10192103472D

 51 52  0     1  0  0  0  0  0999 V2000
    3.7320   -2.2500    0.0000 P   0  0  3  0  0  0  0  0  0  0  0  0
    5.4641   -2.2500    0.0000 P   0  0  0  0  0  0  0  0  0  0  0  0
    2.8660   -2.7500    0.0000 O   0  0  0  0  0  0  0  0  0  0  0  0
    4.2320   -3.1160    0.0000 O   0  0  0  0  0  0  0  0  0  0  0  0
    6.3301   -2.7500    0.0000 O   0  0  0  0  0  0  0  0  0  0  0  0
    5.9641   -1.3840    0.0000 O   0  0  0  0  0  0  0  0  0  0  0  0
    3.2320   -1.3840    0.0000 O   0  0  0  0  0  0  0  0  0  0  0  0
    4.9641   -3.1160    0.0000 O   0  0  0  0  0  0  0  0  0  0  0  0
    4.5981    2.2500    0.0000 N   0  0  0  0  0  0  0  0  0  0  0  0
    4.5981   -0.7500    0.0000 N   0  0  0  0  0  0  0  0  0  0  0  0
    4.5981    1.2500    0.0000 C   0  0  0  0  0  0  0  0  0  0  0  0
    3.7320    0.7500    0.0000 C   0  0  0  0  0  0  0  0  0  0  0  0
    5.4641    0.7500    0.0000 C   0  0  0  0  0  0  0  0  0  0  0  0
    3.7320   -0.2500    0.0000 C   0  0  0  0  0  0  0  0  0  0  0  0
    5.4641   -0.2500    0.0000 C   0  0  0  0  0  0  0  0  0  0  0  0
    5.4641    2.7500    0.0000 C   0  0  0  0  0  0  0  0  0  0  0  0
    3.7320    2.7500    0.0000 C   0  0  0  0  0  0  0  0  0  0  0  0
    4.5981   -1.7500    0.0000 C   0  0  3  0  0  0  0  0  0  0  0  0
    5.4641    3.7500    0.0000 C   0  0  0  0  0  0  0  0  0  0  0  0
    3.7320    3.7500    0.0000 C   0  0  0  0  0  0  0  0  0  0  0  0
    4.5981    4.2500    0.0000 C   0  0  0  0  0  0  0  0  0  0  0  0
    2.8660   -3.7500    0.0000 C   0  0  0  0  0  0  0  0  0  0  0  0
    2.0000   -4.2500    0.0000 C   0  0  0  0  0  0  0  0  0  0  0  0
    5.1350    1.5600    0.0000 H   0  0  0  0  0  0  0  0  0  0  0  0
    3.5200    1.3326    0.0000 H   0  0  0  0  0  0  0  0  0  0  0  0
    3.1215    0.6423    0.0000 H   0  0  0  0  0  0  0  0  0  0  0  0
    6.0747    0.6423    0.0000 H   0  0  0  0  0  0  0  0  0  0  0  0
    5.6762    1.3326    0.0000 H   0  0  0  0  0  0  0  0  0  0  0  0
    3.1215   -0.1423    0.0000 H   0  0  0  0  0  0  0  0  0  0  0  0
    3.5200   -0.8326    0.0000 H   0  0  0  0  0  0  0  0  0  0  0  0
    5.6762   -0.8326    0.0000 H   0  0  0  0  0  0  0  0  0  0  0  0
    6.0747   -0.1423    0.0000 H   0  0  0  0  0  0  0  0  0  0  0  0
    5.6762    2.1674    0.0000 H   0  0  0  0  0  0  0  0  0  0  0  0
    6.0747    2.8577    0.0000 H   0  0  0  0  0  0  0  0  0  0  0  0
    3.1215    2.8577    0.0000 H   0  0  0  0  0  0  0  0  0  0  0  0
    3.5200    2.1674    0.0000 H   0  0  0  0  0  0  0  0  0  0  0  0
    4.5981   -2.3700    0.0000 H   0  0  0  0  0  0  0  0  0  0  0  0
    6.0747    3.6423    0.0000 H   0  0  0  0  0  0  0  0  0  0  0  0
    5.6762    4.3326    0.0000 H   0  0  0  0  0  0  0  0  0  0  0  0
    3.5200    4.3326    0.0000 H   0  0  0  0  0  0  0  0  0  0  0  0
    3.1215    3.6423    0.0000 H   0  0  0  0  0  0  0  0  0  0  0  0
    4.9966    4.7250    0.0000 H   0  0  0  0  0  0  0  0  0  0  0  0
    4.1996    4.7250    0.0000 H   0  0  0  0  0  0  0  0  0  0  0  0
    3.9220   -3.6530    0.0000 H   0  0  0  0  0  0  0  0  0  0  0  0
    6.8671   -2.4400    0.0000 H   0  0  0  0  0  0  0  0  0  0  0  0
    6.5841   -1.3840    0.0000 H   0  0  0  0  0  0  0  0  0  0  0  0
    3.0781   -4.3326    0.0000 H   0  0  0  0  0  0  0  0  0  0  0  0
    3.4766   -3.6423    0.0000 H   0  0  0  0  0  0  0  0  0  0  0  0
    1.6900   -3.7131    0.0000 H   0  0  0  0  0  0  0  0  0  0  0  0
    1.4631   -4.5600    0.0000 H   0  0  0  0  0  0  0  0  0  0  0  0
    2.3100   -4.7869    0.0000 H   0  0  0  0  0  0  0  0  0  0  0  0
  1  3  1  0  0  0  0
  1  4  1  0  0  0  0
  1  7  2  0  0  0  0
  1 18  1  0  0  0  0
  2  5  1  0  0  0  0
  2  6  1  0  0  0  0
  2  8  2  0  0  0  0
  2 18  1  0  0  0  0
  3 22  1  0  0  0  0
  4 44  1  0  0  0  0
  5 45  1  0  0  0  0
  6 46  1  0  0  0  0
  9 11  1  0  0  0  0
  9 16  1  0  0  0  0
  9 17  1  0  0  0  0
 10 14  1  0  0  0  0
 10 15  1  0  0  0  0
 10 18  1  0  0  0  0
 11 12  1  0  0  0  0
 11 13  1  0  0  0  0
 11 24  1  0  0  0  0
 12 14  1  0  0  0  0
 12 25  1  0  0  0  0
 12 26  1  0  0  0  0
 13 15  1  0  0  0  0
 13 27  1  0  0  0  0
 13 28  1  0  0  0  0
 14 29  1  0  0  0  0
 14 30  1  0  0  0  0
 15 31  1  0  0  0  0
 15 32  1  0  0  0  0
 16 19  1  0  0  0  0
 16 33  1  0  0  0  0
 16 34  1  0  0  0  0
 17 20  1  0  0  0  0
 17 35  1  0  0  0  0
 17 36  1  0  0  0  0
 18 37  1  0  0  0  0
 19 21  1  0  0  0  0
 19 38  1  0  0  0  0
 19 39  1  0  0  0  0
 20 21  1  0  0  0  0
 20 40  1  0  0  0  0
 20 41  1  0  0  0  0
 21 42  1  0  0  0  0
 21 43  1  0  0  0  0
 22 23  1  0  0  0  0
 22 47  1  0  0  0  0
 22 48  1  0  0  0  0
 23 49  1  0  0  0  0
 23 50  1  0  0  0  0
 23 51  1  0  0  0  0
M  END
> <PUBCHEM_COMPOUND_CID>
54030538

> <PUBCHEM_COMPOUND_CANONICALIZED>
1

> <PUBCHEM_CACTVS_COMPLEXITY>
471

> <PUBCHEM_CACTVS_HBOND_ACCEPTOR>
8

> <PUBCHEM_CACTVS_HBOND_DONOR>
3

> <PUBCHEM_CACTVS_ROTATABLE_BOND>
6

> <PUBCHEM_CACTVS_SUBSKEYS>
AAADceBzOAMAAAAAAAAAAAAAAAAAAAAAAAAsWAAAAAAAAAAAAAAAHggACCAACCjhgAYCAAMAARAAQAAAAIAAAAAAAAAAAAAIAAAAAAIAwAAEAAAAAACAAAAQAAAAAAAAAAAAAAAAAAAAAAAAAAAAAAAAAA==

> <PUBCHEM_IUPAC_OPENEYE_NAME>
[[ethoxy(hydroxy)phosphoryl]-[4-(1-piperidyl)-1-piperidyl]methyl]phosphonic acid

> <PUBCHEM_IUPAC_CAS_NAME>
[[ethoxy(hydroxy)phosphoryl]-[4-(1-piperidinyl)-1-piperidinyl]methyl]phosphonic acid

> <PUBCHEM_IUPAC_NAME_MARKUP>
[[ethoxy(hydroxy)phosphoryl]-(4-piperidin-1-ylpiperidin-1-yl)methyl]phosphonic acid

> <PUBCHEM_IUPAC_NAME>
[[ethoxy(hydroxy)phosphoryl]-(4-piperidin-1-ylpiperidin-1-yl)methyl]phosphonic acid

> <PUBCHEM_IUPAC_SYSTEMATIC_NAME>
[[ethoxy(oxidanyl)phosphoryl]-(4-piperidin-1-ylpiperidin-1-yl)methyl]phosphonic acid

> <PUBCHEM_IUPAC_TRADITIONAL_NAME>
[[ethoxy(hydroxy)phosphoryl]-(4-piperidinopiperidino)methyl]phosphonic acid

> <PUBCHEM_IUPAC_INCHI>
InChI=1S/C13H28N2O6P2/c1-2-21-23(19,20)13(22(16,17)18)15-10-6-12(7-11-15)14-8-4-3-5-9-14/h12-13H,2-11H2,1H3,(H,19,20)(H2,16,17,18)

> <PUBCHEM_IUPAC_INCHIKEY>
LFGRJLGPUSBUGT-UHFFFAOYSA-N

> <PUBCHEM_XLOGP3_AA>
-5.3

> <PUBCHEM_EXACT_MASS>
370.14226061

> <PUBCHEM_MOLECULAR_FORMULA>
C13H28N2O6P2

> <PUBCHEM_MOLECULAR_WEIGHT>
370.32

> <PUBCHEM_OPENEYE_CAN_SMILES>
CCOP(=O)(C(N1CCC(CC1)N2CCCCC2)P(=O)(O)O)O

> <PUBCHEM_OPENEYE_ISO_SMILES>
CCOP(=O)(C(N1CCC(CC1)N2CCCCC2)P(=O)(O)O)O

> <PUBCHEM_CACTVS_TPSA>
111

> <PUBCHEM_MONOISOTOPIC_WEIGHT>
370.14226061

> <PUBCHEM_TOTAL_CHARGE>
0

> <PUBCHEM_HEAVY_ATOM_COUNT>
23

> <PUBCHEM_ATOM_DEF_STEREO_COUNT>
0

> <PUBCHEM_ATOM_UDEF_STEREO_COUNT>
1

> <PUBCHEM_BOND_DEF_STEREO_COUNT>
0

> <PUBCHEM_BOND_UDEF_STEREO_COUNT>
0

> <PUBCHEM_ISOTOPIC_ATOM_COUNT>
0

> <PUBCHEM_COMPONENT_COUNT>
1

> <PUBCHEM_CACTVS_TAUTO_COUNT>
-1

> <PUBCHEM_COORDINATE_TYPE>
1
5
255

> <PUBCHEM_BONDANNOTATIONS>
18  1  3

$$$$
