 
  -OEChem-10192103472D

 81 80  0     0  0  0  0  0  0999 V2000
   21.9186    0.2500    0.0000 S   0  0  0  0  0  0  0  0  0  0  0  0
    9.7942    0.2500    0.0000 S   0  0  0  0  0  0  0  0  0  0  0  0
   22.7846   -0.2500    0.0000 S   0  0  0  0  0  0  0  0  0  0  0  0
    8.9282   -0.2500    0.0000 S   0  0  0  0  0  0  0  0  0  0  0  0
   19.3205   -0.2500    0.0000 O   0  0  0  0  0  0  0  0  0  0  0  0
   12.3923   -0.2500    0.0000 O   0  0  0  0  0  0  0  0  0  0  0  0
   18.4545    1.2500    0.0000 O   0  0  0  0  0  0  0  0  0  0  0  0
   13.2583    1.2500    0.0000 O   0  0  0  0  0  0  0  0  0  0  0  0
   25.3827    0.2500    0.0000 O   0  0  0  0  0  0  0  0  0  0  0  0
    6.3301    0.2500    0.0000 O   0  0  0  0  0  0  0  0  0  0  0  0
   26.2487   -1.2500    0.0000 O   0  0  0  0  0  0  0  0  0  0  0  0
    5.4641   -1.2500    0.0000 O   0  0  0  0  0  0  0  0  0  0  0  0
   15.8564   -0.2500    0.0000 N   0  0  0  0  0  0  0  0  0  0  0  0
   28.8468    0.2500    0.0000 N   0  0  0  0  0  0  0  0  0  0  0  0
    2.8660    0.2500    0.0000 N   0  0  0  0  0  0  0  0  0  0  0  0
   16.7224    0.2500    0.0000 C   0  0  0  0  0  0  0  0  0  0  0  0
   14.9904    0.2500    0.0000 C   0  0  0  0  0  0  0  0  0  0  0  0
   17.5885   -0.2500    0.0000 C   0  0  0  0  0  0  0  0  0  0  0  0
   14.1244   -0.2500    0.0000 C   0  0  0  0  0  0  0  0  0  0  0  0
   15.8564   -1.2500    0.0000 C   0  0  0  0  0  0  0  0  0  0  0  0
   18.4545    0.2500    0.0000 C   0  0  0  0  0  0  0  0  0  0  0  0
   13.2583    0.2500    0.0000 C   0  0  0  0  0  0  0  0  0  0  0  0
   20.1865    0.2500    0.0000 C   0  0  0  0  0  0  0  0  0  0  0  0
   11.5263    0.2500    0.0000 C   0  0  0  0  0  0  0  0  0  0  0  0
   21.0526   -0.2500    0.0000 C   0  0  0  0  0  0  0  0  0  0  0  0
   10.6603   -0.2500    0.0000 C   0  0  0  0  0  0  0  0  0  0  0  0
   27.1147    0.2500    0.0000 C   0  0  0  0  0  0  0  0  0  0  0  0
    4.5981    0.2500    0.0000 C   0  0  0  0  0  0  0  0  0  0  0  0
   27.9808   -0.2500    0.0000 C   0  0  0  0  0  0  0  0  0  0  0  0
    3.7320   -0.2500    0.0000 C   0  0  0  0  0  0  0  0  0  0  0  0
   23.6506    0.2500    0.0000 C   0  0  0  0  0  0  0  0  0  0  0  0
    8.0622    0.2500    0.0000 C   0  0  0  0  0  0  0  0  0  0  0  0
   24.5167   -0.2500    0.0000 C   0  0  0  0  0  0  0  0  0  0  0  0
    7.1962   -0.2500    0.0000 C   0  0  0  0  0  0  0  0  0  0  0  0
   26.2487   -0.2500    0.0000 C   0  0  0  0  0  0  0  0  0  0  0  0
    5.4641   -0.2500    0.0000 C   0  0  0  0  0  0  0  0  0  0  0  0
   29.7128   -0.2500    0.0000 C   0  0  0  0  0  0  0  0  0  0  0  0
    2.0000   -0.2500    0.0000 C   0  0  0  0  0  0  0  0  0  0  0  0
   17.1210    0.7249    0.0000 H   0  0  0  0  0  0  0  0  0  0  0  0
   16.3239    0.7249    0.0000 H   0  0  0  0  0  0  0  0  0  0  0  0
   15.3889    0.7249    0.0000 H   0  0  0  0  0  0  0  0  0  0  0  0
   14.5919    0.7249    0.0000 H   0  0  0  0  0  0  0  0  0  0  0  0
   17.1899   -0.7249    0.0000 H   0  0  0  0  0  0  0  0  0  0  0  0
   17.9870   -0.7249    0.0000 H   0  0  0  0  0  0  0  0  0  0  0  0
   13.7258   -0.7249    0.0000 H   0  0  0  0  0  0  0  0  0  0  0  0
   14.5229   -0.7249    0.0000 H   0  0  0  0  0  0  0  0  0  0  0  0
   15.2364   -1.2500    0.0000 H   0  0  0  0  0  0  0  0  0  0  0  0
   15.8564   -1.8700    0.0000 H   0  0  0  0  0  0  0  0  0  0  0  0
   16.4764   -1.2500    0.0000 H   0  0  0  0  0  0  0  0  0  0  0  0
   20.5851    0.7249    0.0000 H   0  0  0  0  0  0  0  0  0  0  0  0
   19.7880    0.7249    0.0000 H   0  0  0  0  0  0  0  0  0  0  0  0
   11.9248    0.7249    0.0000 H   0  0  0  0  0  0  0  0  0  0  0  0
   11.1278    0.7249    0.0000 H   0  0  0  0  0  0  0  0  0  0  0  0
   20.6540   -0.7249    0.0000 H   0  0  0  0  0  0  0  0  0  0  0  0
   21.4511   -0.7249    0.0000 H   0  0  0  0  0  0  0  0  0  0  0  0
   10.2617   -0.7249    0.0000 H   0  0  0  0  0  0  0  0  0  0  0  0
   11.0588   -0.7249    0.0000 H   0  0  0  0  0  0  0  0  0  0  0  0
   27.5133    0.7249    0.0000 H   0  0  0  0  0  0  0  0  0  0  0  0
   26.7162    0.7249    0.0000 H   0  0  0  0  0  0  0  0  0  0  0  0
    4.9966    0.7249    0.0000 H   0  0  0  0  0  0  0  0  0  0  0  0
    4.1996    0.7249    0.0000 H   0  0  0  0  0  0  0  0  0  0  0  0
   27.5822   -0.7249    0.0000 H   0  0  0  0  0  0  0  0  0  0  0  0
   28.3793   -0.7249    0.0000 H   0  0  0  0  0  0  0  0  0  0  0  0
    3.3335   -0.7249    0.0000 H   0  0  0  0  0  0  0  0  0  0  0  0
    4.1306   -0.7249    0.0000 H   0  0  0  0  0  0  0  0  0  0  0  0
   24.0492    0.7249    0.0000 H   0  0  0  0  0  0  0  0  0  0  0  0
   23.2521    0.7249    0.0000 H   0  0  0  0  0  0  0  0  0  0  0  0
    8.4607    0.7249    0.0000 H   0  0  0  0  0  0  0  0  0  0  0  0
    7.6636    0.7249    0.0000 H   0  0  0  0  0  0  0  0  0  0  0  0
   24.1181   -0.7249    0.0000 H   0  0  0  0  0  0  0  0  0  0  0  0
   24.9152   -0.7249    0.0000 H   0  0  0  0  0  0  0  0  0  0  0  0
    6.7976   -0.7249    0.0000 H   0  0  0  0  0  0  0  0  0  0  0  0
    7.5947   -0.7249    0.0000 H   0  0  0  0  0  0  0  0  0  0  0  0
   28.8468    0.8700    0.0000 H   0  0  0  0  0  0  0  0  0  0  0  0
    2.8660    0.8700    0.0000 H   0  0  0  0  0  0  0  0  0  0  0  0
   29.4028   -0.7869    0.0000 H   0  0  0  0  0  0  0  0  0  0  0  0
   30.2497   -0.5600    0.0000 H   0  0  0  0  0  0  0  0  0  0  0  0
   30.0228    0.2869    0.0000 H   0  0  0  0  0  0  0  0  0  0  0  0
    1.6900    0.2869    0.0000 H   0  0  0  0  0  0  0  0  0  0  0  0
    1.4631   -0.5600    0.0000 H   0  0  0  0  0  0  0  0  0  0  0  0
    2.3100   -0.7869    0.0000 H   0  0  0  0  0  0  0  0  0  0  0  0
  1  3  1  0  0  0  0
  1 25  1  0  0  0  0
  2  4  1  0  0  0  0
  2 26  1  0  0  0  0
  3 31  1  0  0  0  0
  4 32  1  0  0  0  0
  5 21  1  0  0  0  0
  5 23  1  0  0  0  0
  6 22  1  0  0  0  0
  6 24  1  0  0  0  0
  7 21  2  0  0  0  0
  8 22  2  0  0  0  0
  9 33  1  0  0  0  0
  9 35  1  0  0  0  0
 10 34  1  0  0  0  0
 10 36  1  0  0  0  0
 11 35  2  0  0  0  0
 12 36  2  0  0  0  0
 13 16  1  0  0  0  0
 13 17  1  0  0  0  0
 13 20  1  0  0  0  0
 14 29  1  0  0  0  0
 14 37  1  0  0  0  0
 14 74  1  0  0  0  0
 15 30  1  0  0  0  0
 15 38  1  0  0  0  0
 15 75  1  0  0  0  0
 16 18  1  0  0  0  0
 16 39  1  0  0  0  0
 16 40  1  0  0  0  0
 17 19  1  0  0  0  0
 17 41  1  0  0  0  0
 17 42  1  0  0  0  0
 18 21  1  0  0  0  0
 18 43  1  0  0  0  0
 18 44  1  0  0  0  0
 19 22  1  0  0  0  0
 19 45  1  0  0  0  0
 19 46  1  0  0  0  0
 20 47  1  0  0  0  0
 20 48  1  0  0  0  0
 20 49  1  0  0  0  0
 23 25  1  0  0  0  0
 23 50  1  0  0  0  0
 23 51  1  0  0  0  0
 24 26  1  0  0  0  0
 24 52  1  0  0  0  0
 24 53  1  0  0  0  0
 25 54  1  0  0  0  0
 25 55  1  0  0  0  0
 26 56  1  0  0  0  0
 26 57  1  0  0  0  0
 27 29  1  0  0  0  0
 27 35  1  0  0  0  0
 27 58  1  0  0  0  0
 27 59  1  0  0  0  0
 28 30  1  0  0  0  0
 28 36  1  0  0  0  0
 28 60  1  0  0  0  0
 28 61  1  0  0  0  0
 29 62  1  0  0  0  0
 29 63  1  0  0  0  0
 30 64  1  0  0  0  0
 30 65  1  0  0  0  0
 31 33  1  0  0  0  0
 31 66  1  0  0  0  0
 31 67  1  0  0  0  0
 32 34  1  0  0  0  0
 32 68  1  0  0  0  0
 32 69  1  0  0  0  0
 33 70  1  0  0  0  0
 33 71  1  0  0  0  0
 34 72  1  0  0  0  0
 34 73  1  0  0  0  0
 37 76  1  0  0  0  0
 37 77  1  0  0  0  0
 37 78  1  0  0  0  0
 38 79  1  0  0  0  0
 38 80  1  0  0  0  0
 38 81  1  0  0  0  0
M  END
> <PUBCHEM_COMPOUND_CID>
118406314

> <PUBCHEM_COMPOUND_CANONICALIZED>
1

> <PUBCHEM_CACTVS_COMPLEXITY>
598

> <PUBCHEM_CACTVS_HBOND_ACCEPTOR>
15

> <PUBCHEM_CACTVS_HBOND_DONOR>
2

> <PUBCHEM_CACTVS_ROTATABLE_BOND>
30

> <PUBCHEM_CACTVS_SUBSKEYS>
AAADcfB7PABwAAAAAAAAAAAAAAAAAAAAAAAAAAAAAAAAAAAAAAAAHgQQAAAACADlwAaCCAPABAAIAACQCAAAAAAAAAAAAIEIAAAAAAgAAAAGAAACEACAAAAAAAAAAAAAAAAAAAAAAAAAAAAAAAAAAAAAAA==

> <PUBCHEM_IUPAC_OPENEYE_NAME>
2-[2-[3-[methyl-[3-[2-[2-[3-(methylamino)propanoyloxy]ethyldisulfanyl]ethoxy]-3-oxo-propyl]amino]propanoyloxy]ethyldisulfanyl]ethyl 3-(methylamino)propanoate

> <PUBCHEM_IUPAC_CAS_NAME>
3-(methylamino)propanoic acid 2-[2-[3-[methyl-[3-[2-[2-[3-(methylamino)-1-oxopropoxy]ethyldisulfanyl]ethoxy]-3-oxopropyl]amino]-1-oxopropoxy]ethyldisulfanyl]ethyl ester

> <PUBCHEM_IUPAC_NAME_MARKUP>
2-[2-[3-[methyl-[3-[2-[2-[3-(methylamino)propanoyloxy]ethyldisulfanyl]ethoxy]-3-oxopropyl]amino]propanoyloxy]ethyldisulfanyl]ethyl 3-(methylamino)propanoate

> <PUBCHEM_IUPAC_NAME>
2-[2-[3-[methyl-[3-[2-[2-[3-(methylamino)propanoyloxy]ethyldisulfanyl]ethoxy]-3-oxopropyl]amino]propanoyloxy]ethyldisulfanyl]ethyl 3-(methylamino)propanoate

> <PUBCHEM_IUPAC_SYSTEMATIC_NAME>
2-[2-[3-[methyl-[3-[2-[2-[3-(methylamino)propanoyloxy]ethyldisulfanyl]ethoxy]-3-oxidanylidene-propyl]amino]propanoyloxy]ethyldisulfanyl]ethyl 3-(methylamino)propanoate

> <PUBCHEM_IUPAC_TRADITIONAL_NAME>
3-(methylamino)propionic acid 2-[2-[3-[[3-keto-3-[2-[2-[3-(methylamino)propanoyloxy]ethyldisulfanyl]ethoxy]propyl]-methyl-amino]propanoyloxy]ethyldisulfanyl]ethyl ester

> <PUBCHEM_IUPAC_INCHI>
InChI=1S/C23H43N3O8S4/c1-24-8-4-20(27)31-12-16-35-37-18-14-33-22(29)6-10-26(3)11-7-23(30)34-15-19-38-36-17-13-32-21(28)5-9-25-2/h24-25H,4-19H2,1-3H3

> <PUBCHEM_IUPAC_INCHIKEY>
FTWVZUFVTDRRGE-UHFFFAOYSA-N

> <PUBCHEM_XLOGP3_AA>
0.1

> <PUBCHEM_EXACT_MASS>
617.19330003

> <PUBCHEM_MOLECULAR_FORMULA>
C23H43N3O8S4

> <PUBCHEM_MOLECULAR_WEIGHT>
617.9

> <PUBCHEM_OPENEYE_CAN_SMILES>
CNCCC(=O)OCCSSCCOC(=O)CCN(C)CCC(=O)OCCSSCCOC(=O)CCNC

> <PUBCHEM_OPENEYE_ISO_SMILES>
CNCCC(=O)OCCSSCCOC(=O)CCN(C)CCC(=O)OCCSSCCOC(=O)CCNC

> <PUBCHEM_CACTVS_TPSA>
234

> <PUBCHEM_MONOISOTOPIC_WEIGHT>
617.19330003

> <PUBCHEM_TOTAL_CHARGE>
0

> <PUBCHEM_HEAVY_ATOM_COUNT>
38

> <PUBCHEM_ATOM_DEF_STEREO_COUNT>
0

> <PUBCHEM_ATOM_UDEF_STEREO_COUNT>
0

> <PUBCHEM_BOND_DEF_STEREO_COUNT>
0

> <PUBCHEM_BOND_UDEF_STEREO_COUNT>
0

> <PUBCHEM_ISOTOPIC_ATOM_COUNT>
0

> <PUBCHEM_COMPONENT_COUNT>
1

> <PUBCHEM_CACTVS_TAUTO_COUNT>
-1

> <PUBCHEM_COORDINATE_TYPE>
1
5
255

$$$$
