 
  -OEChem-10192104282D

 68 69  0     1  0  0  0  0  0999 V2000
    8.0622   -3.0000    0.0000 O   0  0  0  0  0  0  0  0  0  0  0  0
   13.2583   -1.0000    0.0000 O   0  0  0  0  0  0  0  0  0  0  0  0
    6.3301   -4.0000    0.0000 O   0  0  0  0  0  0  0  0  0  0  0  0
   14.9904    0.0000    0.0000 O   0  0  0  0  0  0  0  0  0  0  0  0
    4.5981   -3.0000    0.0000 O   0  0  0  0  0  0  0  0  0  0  0  0
   14.9904    2.0000    0.0000 O   0  0  0  0  0  0  0  0  0  0  0  0
    8.9282   -1.5000    0.0000 O   0  0  0  0  0  0  0  0  0  0  0  0
   12.3923   -2.5000    0.0000 O   0  0  0  0  0  0  0  0  0  0  0  0
    3.7320   -1.5000    0.0000 O   0  0  0  0  0  0  0  0  0  0  0  0
   14.1244    3.5000    0.0000 O   0  0  0  0  0  0  0  0  0  0  0  0
   10.6603   -2.5000    0.0000 C   0  0  0  0  0  0  0  0  0  0  0  0
   10.6603   -1.5000    0.0000 C   0  0  0  0  0  0  0  0  0  0  0  0
    9.7942   -3.0000    0.0000 C   0  0  0  0  0  0  0  0  0  0  0  0
   11.5263   -1.0000    0.0000 C   0  0  0  0  0  0  0  0  0  0  0  0
    6.3301   -3.0000    0.0000 C   0  0  3  0  0  0  0  0  0  0  0  0
   14.1244    0.5000    0.0000 C   0  0  3  0  0  0  0  0  0  0  0  0
   11.5263   -3.0000    0.0000 C   0  0  0  0  0  0  0  0  0  0  0  0
    9.7942   -1.0000    0.0000 C   0  0  0  0  0  0  0  0  0  0  0  0
    7.1962   -2.5000    0.0000 C   0  0  0  0  0  0  0  0  0  0  0  0
   13.2583    0.0000    0.0000 C   0  0  0  0  0  0  0  0  0  0  0  0
    9.7942   -4.0000    0.0000 C   0  0  0  0  0  0  0  0  0  0  0  0
   11.5263    0.0000    0.0000 C   0  0  0  0  0  0  0  0  0  0  0  0
    8.9282   -2.5000    0.0000 C   0  0  0  0  0  0  0  0  0  0  0  0
   12.3923   -1.5000    0.0000 C   0  0  0  0  0  0  0  0  0  0  0  0
    5.4641   -2.5000    0.0000 C   0  0  0  0  0  0  0  0  0  0  0  0
   14.1244    1.5000    0.0000 C   0  0  0  0  0  0  0  0  0  0  0  0
   11.5263   -4.0000    0.0000 C   0  0  0  0  0  0  0  0  0  0  0  0
    9.7942    0.0000    0.0000 C   0  0  0  0  0  0  0  0  0  0  0  0
   10.6603   -4.5000    0.0000 C   0  0  0  0  0  0  0  0  0  0  0  0
   10.6603    0.5000    0.0000 C   0  0  0  0  0  0  0  0  0  0  0  0
    3.7320   -2.5000    0.0000 C   0  0  0  0  0  0  0  0  0  0  0  0
   14.9904    3.0000    0.0000 C   0  0  0  0  0  0  0  0  0  0  0  0
    2.8660   -3.0000    0.0000 C   0  0  0  0  0  0  0  0  0  0  0  0
   15.8564    3.5000    0.0000 C   0  0  0  0  0  0  0  0  0  0  0  0
    2.0000   -2.5000    0.0000 C   0  0  0  0  0  0  0  0  0  0  0  0
   15.8564    4.5000    0.0000 C   0  0  0  0  0  0  0  0  0  0  0  0
    2.8660   -4.0000    0.0000 C   0  0  0  0  0  0  0  0  0  0  0  0
   16.7224    3.0000    0.0000 C   0  0  0  0  0  0  0  0  0  0  0  0
    6.8671   -3.3100    0.0000 H   0  0  0  0  0  0  0  0  0  0  0  0
   14.1244   -0.1200    0.0000 H   0  0  0  0  0  0  0  0  0  0  0  0
    7.5947   -2.0250    0.0000 H   0  0  0  0  0  0  0  0  0  0  0  0
    6.7976   -2.0250    0.0000 H   0  0  0  0  0  0  0  0  0  0  0  0
   13.0463    0.5826    0.0000 H   0  0  0  0  0  0  0  0  0  0  0  0
   12.6477   -0.1077    0.0000 H   0  0  0  0  0  0  0  0  0  0  0  0
   12.0632   -2.6900    0.0000 H   0  0  0  0  0  0  0  0  0  0  0  0
    9.2573   -1.3100    0.0000 H   0  0  0  0  0  0  0  0  0  0  0  0
    9.2573   -4.3100    0.0000 H   0  0  0  0  0  0  0  0  0  0  0  0
   12.0632    0.3100    0.0000 H   0  0  0  0  0  0  0  0  0  0  0  0
    5.8626   -2.0250    0.0000 H   0  0  0  0  0  0  0  0  0  0  0  0
    5.0656   -2.0250    0.0000 H   0  0  0  0  0  0  0  0  0  0  0  0
   13.9123    2.0826    0.0000 H   0  0  0  0  0  0  0  0  0  0  0  0
   13.5138    1.3923    0.0000 H   0  0  0  0  0  0  0  0  0  0  0  0
   12.0632   -4.3100    0.0000 H   0  0  0  0  0  0  0  0  0  0  0  0
    9.2573    0.3100    0.0000 H   0  0  0  0  0  0  0  0  0  0  0  0
   10.6603   -5.1200    0.0000 H   0  0  0  0  0  0  0  0  0  0  0  0
   10.6603    1.1200    0.0000 H   0  0  0  0  0  0  0  0  0  0  0  0
    5.7932   -4.3100    0.0000 H   0  0  0  0  0  0  0  0  0  0  0  0
   15.5273    0.3100    0.0000 H   0  0  0  0  0  0  0  0  0  0  0  0
    2.3100   -1.9631    0.0000 H   0  0  0  0  0  0  0  0  0  0  0  0
    1.4631   -2.1900    0.0000 H   0  0  0  0  0  0  0  0  0  0  0  0
    1.6900   -3.0369    0.0000 H   0  0  0  0  0  0  0  0  0  0  0  0
   16.4764    4.5000    0.0000 H   0  0  0  0  0  0  0  0  0  0  0  0
   15.8564    5.1200    0.0000 H   0  0  0  0  0  0  0  0  0  0  0  0
   15.2364    4.5000    0.0000 H   0  0  0  0  0  0  0  0  0  0  0  0
    2.3291   -4.3100    0.0000 H   0  0  0  0  0  0  0  0  0  0  0  0
    3.4030   -4.3100    0.0000 H   0  0  0  0  0  0  0  0  0  0  0  0
   16.7224    2.3800    0.0000 H   0  0  0  0  0  0  0  0  0  0  0  0
   17.2594    3.3100    0.0000 H   0  0  0  0  0  0  0  0  0  0  0  0
  1 19  1  0  0  0  0
  1 23  1  0  0  0  0
  2 20  1  0  0  0  0
  2 24  1  0  0  0  0
  3 15  1  0  0  0  0
  3 57  1  0  0  0  0
  4 16  1  0  0  0  0
  4 58  1  0  0  0  0
  5 25  1  0  0  0  0
  5 31  1  0  0  0  0
  6 26  1  0  0  0  0
  6 32  1  0  0  0  0
  7 23  2  0  0  0  0
  8 24  2  0  0  0  0
  9 31  2  0  0  0  0
 10 32  2  0  0  0  0
 11 12  1  0  0  0  0
 11 13  1  0  0  0  0
 11 17  2  0  0  0  0
 12 14  1  0  0  0  0
 12 18  2  0  0  0  0
 13 21  2  0  0  0  0
 13 23  1  0  0  0  0
 14 22  2  0  0  0  0
 14 24  1  0  0  0  0
 15 19  1  0  0  0  0
 15 25  1  0  0  0  0
 15 39  1  0  0  0  0
 16 20  1  0  0  0  0
 16 26  1  0  0  0  0
 16 40  1  0  0  0  0
 17 27  1  0  0  0  0
 17 45  1  0  0  0  0
 18 28  1  0  0  0  0
 18 46  1  0  0  0  0
 19 41  1  0  0  0  0
 19 42  1  0  0  0  0
 20 43  1  0  0  0  0
 20 44  1  0  0  0  0
 21 29  1  0  0  0  0
 21 47  1  0  0  0  0
 22 30  1  0  0  0  0
 22 48  1  0  0  0  0
 25 49  1  0  0  0  0
 25 50  1  0  0  0  0
 26 51  1  0  0  0  0
 26 52  1  0  0  0  0
 27 29  2  0  0  0  0
 27 53  1  0  0  0  0
 28 30  2  0  0  0  0
 28 54  1  0  0  0  0
 29 55  1  0  0  0  0
 30 56  1  0  0  0  0
 31 33  1  0  0  0  0
 32 34  1  0  0  0  0
 33 35  1  0  0  0  0
 33 37  2  0  0  0  0
 34 36  1  0  0  0  0
 34 38  2  0  0  0  0
 35 59  1  0  0  0  0
 35 60  1  0  0  0  0
 35 61  1  0  0  0  0
 36 62  1  0  0  0  0
 36 63  1  0  0  0  0
 36 64  1  0  0  0  0
 37 65  1  0  0  0  0
 37 66  1  0  0  0  0
 38 67  1  0  0  0  0
 38 68  1  0  0  0  0
M  END
> <PUBCHEM_COMPOUND_CID>
117665300

> <PUBCHEM_COMPOUND_CANONICALIZED>
1

> <PUBCHEM_CACTVS_COMPLEXITY>
796

> <PUBCHEM_CACTVS_HBOND_ACCEPTOR>
10

> <PUBCHEM_CACTVS_HBOND_DONOR>
2

> <PUBCHEM_CACTVS_ROTATABLE_BOND>
17

> <PUBCHEM_CACTVS_SUBSKEYS>
AAADceB4PAAAAAAAAAAAAAAAAAAAAAAAAAAwYAAAAAAAAAABQAAAGgAACAAADBSgmAIyCIAABgCIAiDSCAACAAAkAAAIiAEACMgJNjKANRiCMQAlwAELqYeIyPCOgAAAAAAQAAAAAAAAACAAAAAAAAAAAA==

> <PUBCHEM_IUPAC_OPENEYE_NAME>
[2-hydroxy-3-(2-methylprop-2-enoyloxy)propyl] 2-[2-[2-hydroxy-3-(2-methylprop-2-enoyloxy)propoxy]carbonylphenyl]benzoate

> <PUBCHEM_IUPAC_CAS_NAME>
2-[2-[[2-hydroxy-3-(2-methyl-1-oxoprop-2-enoxy)propoxy]-oxomethyl]phenyl]benzoic acid [2-hydroxy-3-(2-methyl-1-oxoprop-2-enoxy)propyl] ester

> <PUBCHEM_IUPAC_NAME_MARKUP>
[2-hydroxy-3-(2-methylprop-2-enoyloxy)propyl] 2-[2-[2-hydroxy-3-(2-methylprop-2-enoyloxy)propoxy]carbonylphenyl]benzoate

> <PUBCHEM_IUPAC_NAME>
[2-hydroxy-3-(2-methylprop-2-enoyloxy)propyl] 2-[2-[2-hydroxy-3-(2-methylprop-2-enoyloxy)propoxy]carbonylphenyl]benzoate

> <PUBCHEM_IUPAC_SYSTEMATIC_NAME>
[3-(2-methylprop-2-enoyloxy)-2-oxidanyl-propyl] 2-[2-[3-(2-methylprop-2-enoyloxy)-2-oxidanyl-propoxy]carbonylphenyl]benzoate

> <PUBCHEM_IUPAC_TRADITIONAL_NAME>
2-[2-(2-hydroxy-3-methacryloyloxy-propoxy)carbonylphenyl]benzoic acid (2-hydroxy-3-methacryloyloxy-propyl) ester

> <PUBCHEM_IUPAC_INCHI>
InChI=1S/C28H30O10/c1-17(2)25(31)35-13-19(29)15-37-27(33)23-11-7-5-9-21(23)22-10-6-8-12-24(22)28(34)38-16-20(30)14-36-26(32)18(3)4/h5-12,19-20,29-30H,1,3,13-16H2,2,4H3

> <PUBCHEM_IUPAC_INCHIKEY>
ZSGXLJAZOUTBDQ-UHFFFAOYSA-N

> <PUBCHEM_XLOGP3_AA>
3.7

> <PUBCHEM_EXACT_MASS>
526.18389715

> <PUBCHEM_MOLECULAR_FORMULA>
C28H30O10

> <PUBCHEM_MOLECULAR_WEIGHT>
526.5

> <PUBCHEM_OPENEYE_CAN_SMILES>
CC(=C)C(=O)OCC(COC(=O)C1=CC=CC=C1C2=CC=CC=C2C(=O)OCC(COC(=O)C(=C)C)O)O

> <PUBCHEM_OPENEYE_ISO_SMILES>
CC(=C)C(=O)OCC(COC(=O)C1=CC=CC=C1C2=CC=CC=C2C(=O)OCC(COC(=O)C(=C)C)O)O

> <PUBCHEM_CACTVS_TPSA>
146

> <PUBCHEM_MONOISOTOPIC_WEIGHT>
526.18389715

> <PUBCHEM_TOTAL_CHARGE>
0

> <PUBCHEM_HEAVY_ATOM_COUNT>
38

> <PUBCHEM_ATOM_DEF_STEREO_COUNT>
0

> <PUBCHEM_ATOM_UDEF_STEREO_COUNT>
2

> <PUBCHEM_BOND_DEF_STEREO_COUNT>
0

> <PUBCHEM_BOND_UDEF_STEREO_COUNT>
0

> <PUBCHEM_ISOTOPIC_ATOM_COUNT>
0

> <PUBCHEM_COMPONENT_COUNT>
1

> <PUBCHEM_CACTVS_TAUTO_COUNT>
-1

> <PUBCHEM_COORDINATE_TYPE>
1
5
255

> <PUBCHEM_BONDANNOTATIONS>
11  13  8
11  17  8
12  14  8
12  18  8
13  21  8
14  22  8
17  27  8
18  28  8
21  29  8
22  30  8
27  29  8
28  30  8
15  3  3
16  4  3

$$$$
