 
  -OEChem-10192104142D

 81 80  0     1  0  0  0  0  0999 V2000
    8.0622   -1.6550    0.0000 S   0  0  0  0  0  0  0  0  0  0  0  0
    4.5981    2.3450    0.0000 O   0  0  0  0  0  0  0  0  0  0  0  0
    9.7942    2.3450    0.0000 O   0  0  0  0  0  0  0  0  0  0  0  0
    7.1962   -0.1550    0.0000 O   0  0  0  0  0  0  0  0  0  0  0  0
    5.4641    2.8450    0.0000 O   0  0  0  0  0  0  0  0  0  0  0  0
   12.3923   -0.1550    0.0000 O   0  0  0  0  0  0  0  0  0  0  0  0
   15.8564    0.8450    0.0000 O   0  0  0  0  0  0  0  0  0  0  0  0
   14.9904    2.3450    0.0000 O   0  0  0  0  0  0  0  0  0  0  0  0
    8.0622    1.3450    0.0000 N   0  0  0  0  0  0  0  0  0  0  0  0
    5.4641    0.8450    0.0000 N   0  0  0  0  0  0  0  0  0  0  0  0
   13.2583    1.3450    0.0000 N   0  0  0  0  0  0  0  0  0  0  0  0
   10.6603    0.8450    0.0000 N   0  0  0  0  0  0  0  0  0  0  0  0
    2.8660    1.3450    0.0000 N   0  0  0  0  0  0  0  0  0  0  0  0
   15.8564   -3.1550    0.0000 N   0  0  0  0  0  0  0  0  0  0  0  0
    3.7320   -0.1550    0.0000 C   0  0  0  0  0  0  0  0  0  0  0  0
    2.8660   -0.6550    0.0000 C   0  0  0  0  0  0  0  0  0  0  0  0
    3.7320    0.8450    0.0000 C   0  0  1  0  0  0  0  0  0  0  0  0
    8.9282    0.8450    0.0000 C   0  0  1  0  0  0  0  0  0  0  0  0
   14.1244   -0.1550    0.0000 C   0  0  0  0  0  0  0  0  0  0  0  0
   14.1244    0.8450    0.0000 C   0  0  1  0  0  0  0  0  0  0  0  0
    6.3301    1.3450    0.0000 C   0  0  2  0  0  0  0  0  0  0  0  0
   14.9904   -0.6550    0.0000 C   0  0  0  0  0  0  0  0  0  0  0  0
    8.9282   -0.1550    0.0000 C   0  0  0  0  0  0  0  0  0  0  0  0
   11.5263    1.3450    0.0000 C   0  0  2  0  0  0  0  0  0  0  0  0
    4.5981    1.3450    0.0000 C   0  0  0  0  0  0  0  0  0  0  0  0
    9.7942    1.3450    0.0000 C   0  0  0  0  0  0  0  0  0  0  0  0
    7.1962    0.8450    0.0000 C   0  0  0  0  0  0  0  0  0  0  0  0
    2.8660   -1.6550    0.0000 C   0  0  0  0  0  0  0  0  0  0  0  0
    2.0000   -0.1550    0.0000 C   0  0  0  0  0  0  0  0  0  0  0  0
   14.9904   -1.6550    0.0000 C   0  0  0  0  0  0  0  0  0  0  0  0
   12.3923    0.8450    0.0000 C   0  0  0  0  0  0  0  0  0  0  0  0
    6.3301    2.3450    0.0000 C   0  0  0  0  0  0  0  0  0  0  0  0
    8.0622   -0.6550    0.0000 C   0  0  0  0  0  0  0  0  0  0  0  0
   11.5263    2.3450    0.0000 C   0  0  0  0  0  0  0  0  0  0  0  0
   15.8564   -2.1550    0.0000 C   0  0  0  0  0  0  0  0  0  0  0  0
   14.9904    1.3450    0.0000 C   0  0  0  0  0  0  0  0  0  0  0  0
    7.1962   -2.1550    0.0000 C   0  0  0  0  0  0  0  0  0  0  0  0
    3.9441   -0.7376    0.0000 H   0  0  0  0  0  0  0  0  0  0  0  0
    4.3426   -0.0473    0.0000 H   0  0  0  0  0  0  0  0  0  0  0  0
    2.8660   -0.0350    0.0000 H   0  0  0  0  0  0  0  0  0  0  0  0
    3.7320    1.4650    0.0000 H   0  0  0  0  0  0  0  0  0  0  0  0
    8.9282    1.4650    0.0000 H   0  0  0  0  0  0  0  0  0  0  0  0
   13.5138   -0.0473    0.0000 H   0  0  0  0  0  0  0  0  0  0  0  0
   13.9123   -0.7376    0.0000 H   0  0  0  0  0  0  0  0  0  0  0  0
   13.5874    0.5350    0.0000 H   0  0  0  0  0  0  0  0  0  0  0  0
    5.7932    1.6550    0.0000 H   0  0  0  0  0  0  0  0  0  0  0  0
   15.6010   -0.7627    0.0000 H   0  0  0  0  0  0  0  0  0  0  0  0
   15.2024   -0.0724    0.0000 H   0  0  0  0  0  0  0  0  0  0  0  0
    9.1403   -0.7376    0.0000 H   0  0  0  0  0  0  0  0  0  0  0  0
    9.5388   -0.0473    0.0000 H   0  0  0  0  0  0  0  0  0  0  0  0
   10.9893    1.6550    0.0000 H   0  0  0  0  0  0  0  0  0  0  0  0
    8.0622    1.9650    0.0000 H   0  0  0  0  0  0  0  0  0  0  0  0
    5.4641    0.2250    0.0000 H   0  0  0  0  0  0  0  0  0  0  0  0
    2.2460   -1.6550    0.0000 H   0  0  0  0  0  0  0  0  0  0  0  0
    2.8660   -2.2750    0.0000 H   0  0  0  0  0  0  0  0  0  0  0  0
    3.4860   -1.6550    0.0000 H   0  0  0  0  0  0  0  0  0  0  0  0
    2.3100    0.3819    0.0000 H   0  0  0  0  0  0  0  0  0  0  0  0
    1.4631    0.1550    0.0000 H   0  0  0  0  0  0  0  0  0  0  0  0
    1.6900   -0.6919    0.0000 H   0  0  0  0  0  0  0  0  0  0  0  0
   14.3798   -1.5473    0.0000 H   0  0  0  0  0  0  0  0  0  0  0  0
   14.7783   -2.2376    0.0000 H   0  0  0  0  0  0  0  0  0  0  0  0
   13.2583    1.9650    0.0000 H   0  0  0  0  0  0  0  0  0  0  0  0
   10.6603    0.2250    0.0000 H   0  0  0  0  0  0  0  0  0  0  0  0
    6.9407    2.2373    0.0000 H   0  0  0  0  0  0  0  0  0  0  0  0
    6.5422    2.9276    0.0000 H   0  0  0  0  0  0  0  0  0  0  0  0
    7.8501   -0.0724    0.0000 H   0  0  0  0  0  0  0  0  0  0  0  0
    7.4516   -0.7627    0.0000 H   0  0  0  0  0  0  0  0  0  0  0  0
    2.3291    1.0350    0.0000 H   0  0  0  0  0  0  0  0  0  0  0  0
    2.8660    1.9650    0.0000 H   0  0  0  0  0  0  0  0  0  0  0  0
   12.1463    2.3450    0.0000 H   0  0  0  0  0  0  0  0  0  0  0  0
   11.5263    2.9650    0.0000 H   0  0  0  0  0  0  0  0  0  0  0  0
   10.9063    2.3450    0.0000 H   0  0  0  0  0  0  0  0  0  0  0  0
   16.4670   -2.2627    0.0000 H   0  0  0  0  0  0  0  0  0  0  0  0
   16.0685   -1.5724    0.0000 H   0  0  0  0  0  0  0  0  0  0  0  0
   16.3933   -3.4650    0.0000 H   0  0  0  0  0  0  0  0  0  0  0  0
   15.3195   -3.4650    0.0000 H   0  0  0  0  0  0  0  0  0  0  0  0
    5.4641    3.4650    0.0000 H   0  0  0  0  0  0  0  0  0  0  0  0
   16.3933    1.1550    0.0000 H   0  0  0  0  0  0  0  0  0  0  0  0
    6.8862   -1.6181    0.0000 H   0  0  0  0  0  0  0  0  0  0  0  0
    6.6592   -2.4650    0.0000 H   0  0  0  0  0  0  0  0  0  0  0  0
    7.5062   -2.6919    0.0000 H   0  0  0  0  0  0  0  0  0  0  0  0
  1 33  1  0  0  0  0
  1 37  1  0  0  0  0
  2 25  2  0  0  0  0
  3 26  2  0  0  0  0
  4 27  2  0  0  0  0
  5 32  1  0  0  0  0
  5 77  1  0  0  0  0
  6 31  2  0  0  0  0
  7 36  1  0  0  0  0
  7 78  1  0  0  0  0
  8 36  2  0  0  0  0
 18  9  1  6  0  0  0
  9 27  1  0  0  0  0
  9 52  1  0  0  0  0
 21 10  1  1  0  0  0
 10 25  1  0  0  0  0
 10 53  1  0  0  0  0
 20 11  1  6  0  0  0
 11 31  1  0  0  0  0
 11 62  1  0  0  0  0
 24 12  1  1  0  0  0
 12 26  1  0  0  0  0
 12 63  1  0  0  0  0
 17 13  1  6  0  0  0
 13 68  1  0  0  0  0
 13 69  1  0  0  0  0
 14 35  1  0  0  0  0
 14 75  1  0  0  0  0
 14 76  1  0  0  0  0
 15 16  1  0  0  0  0
 15 17  1  0  0  0  0
 15 38  1  0  0  0  0
 15 39  1  0  0  0  0
 16 28  1  0  0  0  0
 16 29  1  0  0  0  0
 16 40  1  0  0  0  0
 17 25  1  0  0  0  0
 17 41  1  0  0  0  0
 18 23  1  0  0  0  0
 18 26  1  0  0  0  0
 18 42  1  0  0  0  0
 19 20  1  0  0  0  0
 19 22  1  0  0  0  0
 19 43  1  0  0  0  0
 19 44  1  0  0  0  0
 20 36  1  0  0  0  0
 20 45  1  0  0  0  0
 21 27  1  0  0  0  0
 21 32  1  0  0  0  0
 21 46  1  0  0  0  0
 22 30  1  0  0  0  0
 22 47  1  0  0  0  0
 22 48  1  0  0  0  0
 23 33  1  0  0  0  0
 23 49  1  0  0  0  0
 23 50  1  0  0  0  0
 24 31  1  0  0  0  0
 24 34  1  0  0  0  0
 24 51  1  0  0  0  0
 28 54  1  0  0  0  0
 28 55  1  0  0  0  0
 28 56  1  0  0  0  0
 29 57  1  0  0  0  0
 29 58  1  0  0  0  0
 29 59  1  0  0  0  0
 30 35  1  0  0  0  0
 30 60  1  0  0  0  0
 30 61  1  0  0  0  0
 32 64  1  0  0  0  0
 32 65  1  0  0  0  0
 33 66  1  0  0  0  0
 33 67  1  0  0  0  0
 34 70  1  0  0  0  0
 34 71  1  0  0  0  0
 34 72  1  0  0  0  0
 35 73  1  0  0  0  0
 35 74  1  0  0  0  0
 37 79  1  0  0  0  0
 37 80  1  0  0  0  0
 37 81  1  0  0  0  0
M  END
> <PUBCHEM_COMPOUND_CID>
10370282

> <PUBCHEM_COMPOUND_CANONICALIZED>
1

> <PUBCHEM_CACTVS_COMPLEXITY>
755

> <PUBCHEM_CACTVS_HBOND_ACCEPTOR>
10

> <PUBCHEM_CACTVS_HBOND_DONOR>
8

> <PUBCHEM_CACTVS_ROTATABLE_BOND>
19

> <PUBCHEM_CACTVS_SUBSKEYS>
AAADcfB7uABAAAAAAAAAAAAAAAAAAAAAAAAAAAAAAAAAAAAAAAAAHgQQCAAADSjlwAaCCALAAggIAAGQGAAAAAAAABAAAIGIAAACUBYggCAUQAAGNgCQAAGYSAAMAAAAAAAAAAAAAAAAAAAAAAAAAAAAAA==

> <PUBCHEM_IUPAC_OPENEYE_NAME>
(2S)-6-amino-2-[[(2S)-2-[[(2S)-2-[[(2S)-2-[[(2S)-2-amino-4-methyl-pentanoyl]amino]-3-hydroxy-propanoyl]amino]-4-methylsulfanyl-butanoyl]amino]propanoyl]amino]hexanoic acid

> <PUBCHEM_IUPAC_CAS_NAME>
(2S)-6-amino-2-[[(2S)-2-[[(2S)-2-[[(2S)-2-[[(2S)-2-amino-4-methyl-1-oxopentyl]amino]-3-hydroxy-1-oxopropyl]amino]-4-(methylthio)-1-oxobutyl]amino]-1-oxopropyl]amino]hexanoic acid

> <PUBCHEM_IUPAC_NAME_MARKUP>
(2<I>S</I>)-6-amino-2-[[(2<I>S</I>)-2-[[(2<I>S</I>)-2-[[(2<I>S</I>)-2-[[(2<I>S</I>)-2-amino-4-methylpentanoyl]amino]-3-hydroxypropanoyl]amino]-4-methylsulfanylbutanoyl]amino]propanoyl]amino]hexanoic acid

> <PUBCHEM_IUPAC_NAME>
(2S)-6-amino-2-[[(2S)-2-[[(2S)-2-[[(2S)-2-[[(2S)-2-amino-4-methylpentanoyl]amino]-3-hydroxypropanoyl]amino]-4-methylsulfanylbutanoyl]amino]propanoyl]amino]hexanoic acid

> <PUBCHEM_IUPAC_SYSTEMATIC_NAME>
(2S)-6-azanyl-2-[[(2S)-2-[[(2S)-2-[[(2S)-2-[[(2S)-2-azanyl-4-methyl-pentanoyl]amino]-3-oxidanyl-propanoyl]amino]-4-methylsulfanyl-butanoyl]amino]propanoyl]amino]hexanoic acid

> <PUBCHEM_IUPAC_TRADITIONAL_NAME>
(2S)-6-amino-2-[[(2S)-2-[[(2S)-2-[[(2S)-2-[[(2S)-2-amino-4-methyl-pentanoyl]amino]-3-hydroxy-propanoyl]amino]-4-(methylthio)butanoyl]amino]propanoyl]amino]hexanoic acid

> <PUBCHEM_IUPAC_INCHI>
InChI=1S/C23H44N6O7S/c1-13(2)11-15(25)20(32)29-18(12-30)22(34)27-16(8-10-37-4)21(33)26-14(3)19(31)28-17(23(35)36)7-5-6-9-24/h13-18,30H,5-12,24-25H2,1-4H3,(H,26,33)(H,27,34)(H,28,31)(H,29,32)(H,35,36)/t14-,15-,16-,17-,18-/m0/s1

> <PUBCHEM_IUPAC_INCHIKEY>
UKFUKASDBIKMET-ATIWLJMLSA-N

> <PUBCHEM_XLOGP3>
-3.8

> <PUBCHEM_EXACT_MASS>
548.29921894

> <PUBCHEM_MOLECULAR_FORMULA>
C23H44N6O7S

> <PUBCHEM_MOLECULAR_WEIGHT>
548.7

> <PUBCHEM_OPENEYE_CAN_SMILES>
CC(C)CC(C(=O)NC(CO)C(=O)NC(CCSC)C(=O)NC(C)C(=O)NC(CCCCN)C(=O)O)N

> <PUBCHEM_OPENEYE_ISO_SMILES>
C[C@@H](C(=O)N[C@@H](CCCCN)C(=O)O)NC(=O)[C@H](CCSC)NC(=O)[C@H](CO)NC(=O)[C@H](CC(C)C)N

> <PUBCHEM_CACTVS_TPSA>
251

> <PUBCHEM_MONOISOTOPIC_WEIGHT>
548.29921894

> <PUBCHEM_TOTAL_CHARGE>
0

> <PUBCHEM_HEAVY_ATOM_COUNT>
37

> <PUBCHEM_ATOM_DEF_STEREO_COUNT>
5

> <PUBCHEM_ATOM_UDEF_STEREO_COUNT>
0

> <PUBCHEM_BOND_DEF_STEREO_COUNT>
0

> <PUBCHEM_BOND_UDEF_STEREO_COUNT>
0

> <PUBCHEM_ISOTOPIC_ATOM_COUNT>
0

> <PUBCHEM_COMPONENT_COUNT>
1

> <PUBCHEM_CACTVS_TAUTO_COUNT>
-1

> <PUBCHEM_COORDINATE_TYPE>
1
5
255

> <PUBCHEM_BONDANNOTATIONS>
21  10  5
20  11  6
24  12  5
17  13  6
18  9  6

$$$$
