 
  -OEChem-10192104092D

 67 69  0     1  0  0  0  0  0999 V2000
    5.3100   -0.3455    0.0000 O   0  0  0  0  0  0  0  0  0  0  0  0
    5.6760   -1.7115    0.0000 O   0  0  0  0  0  0  0  0  0  0  0  0
    8.2741   -1.2115    0.0000 O   0  0  0  0  0  0  0  0  0  0  0  0
    3.3100    1.3865    0.0000 O   0  0  0  0  0  0  0  0  0  0  0  0
    2.3100   -0.3455    0.0000 O   0  0  0  0  0  0  0  0  0  0  0  0
    6.3100    1.3865    0.0000 O   0  0  0  0  0  0  0  0  0  0  0  0
    6.5420   -3.2115    0.0000 O   0  0  0  0  0  0  0  0  0  0  0  0
    8.2741   -4.2115    0.0000 O   0  0  0  0  0  0  0  0  0  0  0  0
   10.0062   -1.2115    0.0000 O   0  0  0  0  0  0  0  0  0  0  0  0
   10.0062   -3.2115    0.0000 O   0  0  0  0  0  0  0  0  0  0  0  0
    3.8100    2.2526    0.0000 O   0  0  0  0  0  0  0  0  0  0  0  0
    3.9440   -2.7115    0.0000 O   0  0  0  0  0  0  0  0  0  0  0  0
    5.6760   -2.7115    0.0000 O   0  0  0  0  0  0  0  0  0  0  0  0
    4.8100    3.9846    0.0000 O   0  0  0  0  0  0  0  0  0  0  0  0
   10.8722    3.2885    0.0000 O   0  5  0  0  0  0  0  0  0  0  0  0
    9.1401    3.2885    0.0000 O   0  0  0  0  0  0  0  0  0  0  0  0
   10.0062    2.7885    0.0000 N   0  3  0  0  0  0  0  0  0  0  0  0
    4.8100    0.5205    0.0000 C   0  0  2  0  0  0  0  0  0  0  0  0
    4.8100   -1.2115    0.0000 C   0  0  2  0  0  0  0  0  0  0  0  0
    3.8100    0.5205    0.0000 C   0  0  1  0  0  0  0  0  0  0  0  0
    3.3100   -0.3455    0.0000 C   0  0  2  0  0  0  0  0  0  0  0  0
    3.8100   -1.2115    0.0000 C   0  0  0  0  0  0  0  0  0  0  0  0
    7.4081   -1.7115    0.0000 C   0  0  1  0  0  0  0  0  0  0  0  0
    5.3100    1.3865    0.0000 C   0  0  1  0  0  0  0  0  0  0  0  0
    7.4081   -2.7115    0.0000 C   0  0  1  0  0  0  0  0  0  0  0  0
    8.2741   -3.2115    0.0000 C   0  0  1  0  0  0  0  0  0  0  0  0
    6.5420   -1.2115    0.0000 C   0  0  0  0  0  0  0  0  0  0  0  0
    9.1401   -2.7115    0.0000 C   0  0  2  0  0  0  0  0  0  0  0  0
    9.1401   -1.7115    0.0000 C   0  0  1  0  0  0  0  0  0  0  0  0
    4.8100    2.2526    0.0000 C   0  0  1  0  0  0  0  0  0  0  0  0
    4.8100   -2.2115    0.0000 C   0  0  0  0  0  0  0  0  0  0  0  0
    5.3100    3.1186    0.0000 C   0  0  0  0  0  0  0  0  0  0  0  0
   10.0062   -0.2115    0.0000 C   0  0  0  0  0  0  0  0  0  0  0  0
   10.8722    0.2885    0.0000 C   0  0  0  0  0  0  0  0  0  0  0  0
    9.1401    0.2885    0.0000 C   0  0  0  0  0  0  0  0  0  0  0  0
   10.8722    1.2885    0.0000 C   0  0  0  0  0  0  0  0  0  0  0  0
    9.1401    1.2885    0.0000 C   0  0  0  0  0  0  0  0  0  0  0  0
   10.0062    1.7885    0.0000 C   0  0  0  0  0  0  0  0  0  0  0  0
    5.6600    0.5205    0.0000 H   0  0  0  0  0  0  0  0  0  0  0  0
    3.1900    0.5205    0.0000 H   0  0  0  0  0  0  0  0  0  0  0  0
    3.0000   -0.8825    0.0000 H   0  0  0  0  0  0  0  0  0  0  0  0
    3.2274   -1.4236    0.0000 H   0  0  0  0  0  0  0  0  0  0  0  0
    3.9177   -1.8221    0.0000 H   0  0  0  0  0  0  0  0  0  0  0  0
    7.4081   -1.0915    0.0000 H   0  0  0  0  0  0  0  0  0  0  0  0
    5.6200    1.9235    0.0000 H   0  0  0  0  0  0  0  0  0  0  0  0
    6.8711   -2.4015    0.0000 H   0  0  0  0  0  0  0  0  0  0  0  0
    7.7372   -3.5215    0.0000 H   0  0  0  0  0  0  0  0  0  0  0  0
    6.9406   -0.7366    0.0000 H   0  0  0  0  0  0  0  0  0  0  0  0
    6.1435   -0.7366    0.0000 H   0  0  0  0  0  0  0  0  0  0  0  0
    9.1401   -3.3315    0.0000 H   0  0  0  0  0  0  0  0  0  0  0  0
    9.6771   -2.0215    0.0000 H   0  0  0  0  0  0  0  0  0  0  0  0
    4.5000    1.7156    0.0000 H   0  0  0  0  0  0  0  0  0  0  0  0
    2.6900    1.3865    0.0000 H   0  0  0  0  0  0  0  0  0  0  0  0
    2.0000   -0.8825    0.0000 H   0  0  0  0  0  0  0  0  0  0  0  0
    5.7850    2.7200    0.0000 H   0  0  0  0  0  0  0  0  0  0  0  0
    5.7850    3.5171    0.0000 H   0  0  0  0  0  0  0  0  0  0  0  0
    6.6200    1.9235    0.0000 H   0  0  0  0  0  0  0  0  0  0  0  0
    6.5420   -3.8315    0.0000 H   0  0  0  0  0  0  0  0  0  0  0  0
    8.8110   -4.5215    0.0000 H   0  0  0  0  0  0  0  0  0  0  0  0
   10.5431   -2.9015    0.0000 H   0  0  0  0  0  0  0  0  0  0  0  0
    3.5000    2.7895    0.0000 H   0  0  0  0  0  0  0  0  0  0  0  0
    3.9440   -3.3315    0.0000 H   0  0  0  0  0  0  0  0  0  0  0  0
    5.1200    4.5215    0.0000 H   0  0  0  0  0  0  0  0  0  0  0  0
   11.4091   -0.0215    0.0000 H   0  0  0  0  0  0  0  0  0  0  0  0
    8.6032   -0.0215    0.0000 H   0  0  0  0  0  0  0  0  0  0  0  0
   11.4091    1.5985    0.0000 H   0  0  0  0  0  0  0  0  0  0  0  0
    8.6032    1.5985    0.0000 H   0  0  0  0  0  0  0  0  0  0  0  0
  1 18  1  0  0  0  0
  1 19  1  0  0  0  0
 19  2  1  6  0  0  0
  2 27  1  0  0  0  0
  3 23  1  0  0  0  0
  3 29  1  0  0  0  0
 20  4  1  1  0  0  0
  4 53  1  0  0  0  0
 21  5  1  6  0  0  0
  5 54  1  0  0  0  0
 24  6  1  1  0  0  0
  6 57  1  0  0  0  0
 25  7  1  1  0  0  0
  7 58  1  0  0  0  0
 26  8  1  1  0  0  0
  8 59  1  0  0  0  0
 29  9  1  1  0  0  0
  9 33  1  0  0  0  0
 28 10  1  6  0  0  0
 10 60  1  0  0  0  0
 30 11  1  6  0  0  0
 11 61  1  0  0  0  0
 12 31  1  0  0  0  0
 12 62  1  0  0  0  0
 13 31  2  0  0  0  0
 14 32  1  0  0  0  0
 14 63  1  0  0  0  0
 15 17  1  0  0  0  0
 16 17  2  0  0  0  0
 17 38  1  0  0  0  0
 18 20  1  0  0  0  0
 18 24  1  0  0  0  0
 18 39  1  1  0  0  0
 19 22  1  0  0  0  0
 19 31  1  0  0  0  0
 20 21  1  0  0  0  0
 20 40  1  0  0  0  0
 21 22  1  0  0  0  0
 21 41  1  0  0  0  0
 22 42  1  0  0  0  0
 22 43  1  0  0  0  0
 23 25  1  0  0  0  0
 23 27  1  1  0  0  0
 23 44  1  0  0  0  0
 24 30  1  0  0  0  0
 24 45  1  0  0  0  0
 25 26  1  0  0  0  0
 25 46  1  0  0  0  0
 26 28  1  0  0  0  0
 26 47  1  0  0  0  0
 27 48  1  0  0  0  0
 27 49  1  0  0  0  0
 28 29  1  0  0  0  0
 28 50  1  0  0  0  0
 29 51  1  0  0  0  0
 30 32  1  0  0  0  0
 30 52  1  0  0  0  0
 32 55  1  0  0  0  0
 32 56  1  0  0  0  0
 33 34  2  0  0  0  0
 33 35  1  0  0  0  0
 34 36  1  0  0  0  0
 34 64  1  0  0  0  0
 35 37  2  0  0  0  0
 35 65  1  0  0  0  0
 36 38  2  0  0  0  0
 36 66  1  0  0  0  0
 37 38  1  0  0  0  0
 37 67  1  0  0  0  0
M  CHG  2  15  -1  17   1
M  END
> <PUBCHEM_COMPOUND_CID>
102170220

> <PUBCHEM_COMPOUND_CANONICALIZED>
1

> <PUBCHEM_CACTVS_COMPLEXITY>
805

> <PUBCHEM_CACTVS_HBOND_ACCEPTOR>
16

> <PUBCHEM_CACTVS_HBOND_DONOR>
9

> <PUBCHEM_CACTVS_ROTATABLE_BOND>
9

> <PUBCHEM_CACTVS_SUBSKEYS>
AAADceB6PgAAAAAAAAAAAAAAAAAAAAAAAAA0SIAAAAAAAAABAAAAHgAECAAACByxkAMwzoAQRgCJACTSSwKCCAAgIgAoiAFGbIodNjKEsZ+ieCDlwBEP6Af67KzAAEAAAAAAAAAAgAAAAAAAAAAAAAAAAA==

> <PUBCHEM_IUPAC_OPENEYE_NAME>
(2R,4S,5R,6R)-4,5-dihydroxy-2-[[(2R,3R,4S,5R,6S)-3,4,5-trihydroxy-6-(4-nitrophenoxy)tetrahydropyran-2-yl]methoxy]-6-[(1R,2R)-1,2,3-trihydroxypropyl]tetrahydropyran-2-carboxylic acid

> <PUBCHEM_IUPAC_CAS_NAME>
(2R,4S,5R,6R)-4,5-dihydroxy-2-[[(2R,3R,4S,5R,6S)-3,4,5-trihydroxy-6-(4-nitrophenoxy)-2-oxanyl]methoxy]-6-[(1R,2R)-1,2,3-trihydroxypropyl]-2-oxanecarboxylic acid

> <PUBCHEM_IUPAC_NAME_MARKUP>
(2<I>R</I>,4<I>S</I>,5<I>R</I>,6<I>R</I>)-4,5-dihydroxy-2-[[(2<I>R</I>,3<I>R</I>,4<I>S</I>,5<I>R</I>,6<I>S</I>)-3,4,5-trihydroxy-6-(4-nitrophenoxy)oxan-2-yl]methoxy]-6-[(1<I>R</I>,2<I>R</I>)-1,2,3-trihydroxypropyl]oxane-2-carboxylic acid

> <PUBCHEM_IUPAC_NAME>
(2R,4S,5R,6R)-4,5-dihydroxy-2-[[(2R,3R,4S,5R,6S)-3,4,5-trihydroxy-6-(4-nitrophenoxy)oxan-2-yl]methoxy]-6-[(1R,2R)-1,2,3-trihydroxypropyl]oxane-2-carboxylic acid

> <PUBCHEM_IUPAC_SYSTEMATIC_NAME>
(2R,4S,5R,6R)-2-[[(2R,3R,4S,5R,6S)-6-(4-nitrophenoxy)-3,4,5-tris(oxidanyl)oxan-2-yl]methoxy]-4,5-bis(oxidanyl)-6-[(1R,2R)-1,2,3-tris(oxidanyl)propyl]oxane-2-carboxylic acid

> <PUBCHEM_IUPAC_TRADITIONAL_NAME>
(2R,4S,5R,6R)-4,5-dihydroxy-2-[[(2R,3R,4S,5R,6S)-3,4,5-trihydroxy-6-(4-nitrophenoxy)tetrahydropyran-2-yl]methoxy]-6-[(1R,2R)-1,2,3-trihydroxypropyl]tetrahydropyran-2-carboxylic acid

> <PUBCHEM_IUPAC_INCHI>
InChI=1S/C21H29NO16/c23-6-11(25)14(27)18-13(26)10(24)5-21(38-18,20(31)32)35-7-12-15(28)16(29)17(30)19(37-12)36-9-3-1-8(2-4-9)22(33)34/h1-4,10-19,23-30H,5-7H2,(H,31,32)/t10-,11+,12+,13+,14+,15-,16-,17+,18+,19+,21+/m0/s1

> <PUBCHEM_IUPAC_INCHIKEY>
OCJWZFSNLKIPMZ-RJJBFEPUSA-N

> <PUBCHEM_XLOGP3_AA>
-3.4

> <PUBCHEM_EXACT_MASS>
551.14863384

> <PUBCHEM_MOLECULAR_FORMULA>
C21H29NO16

> <PUBCHEM_MOLECULAR_WEIGHT>
551.5

> <PUBCHEM_OPENEYE_CAN_SMILES>
C1C(C(C(OC1(C(=O)O)OCC2C(C(C(C(O2)OC3=CC=C(C=C3)[N+](=O)[O-])O)O)O)C(C(CO)O)O)O)O

> <PUBCHEM_OPENEYE_ISO_SMILES>
C1[C@@H]([C@H]([C@@H](O[C@]1(C(=O)O)OC[C@@H]2[C@@H]([C@@H]([C@H]([C@@H](O2)OC3=CC=C(C=C3)[N+](=O)[O-])O)O)O)[C@@H]([C@@H](CO)O)O)O)O

> <PUBCHEM_CACTVS_TPSA>
282

> <PUBCHEM_MONOISOTOPIC_WEIGHT>
551.14863384

> <PUBCHEM_TOTAL_CHARGE>
0

> <PUBCHEM_HEAVY_ATOM_COUNT>
38

> <PUBCHEM_ATOM_DEF_STEREO_COUNT>
11

> <PUBCHEM_ATOM_UDEF_STEREO_COUNT>
0

> <PUBCHEM_BOND_DEF_STEREO_COUNT>
0

> <PUBCHEM_BOND_UDEF_STEREO_COUNT>
0

> <PUBCHEM_ISOTOPIC_ATOM_COUNT>
0

> <PUBCHEM_COMPONENT_COUNT>
1

> <PUBCHEM_CACTVS_TAUTO_COUNT>
-1

> <PUBCHEM_COORDINATE_TYPE>
1
5
255

> <PUBCHEM_BONDANNOTATIONS>
28  10  6
30  11  6
18  39  5
19  2  6
23  27  5
33  34  8
33  35  8
34  36  8
35  37  8
36  38  8
37  38  8
20  4  5
21  5  6
24  6  5
25  7  5
26  8  5
29  9  5

$$$$
