 
  -OEChem-10192104042D

 58 57  0     1  0  0  0  0  0999 V2000
    3.7057    1.3660    0.0000 O   0  0  0  0  0  0  0  0  0  0  0  0
    5.9378    2.5000    0.0000 O   0  0  0  0  0  0  0  0  0  0  0  0
    4.2057    2.5000    0.0000 O   0  0  0  0  0  0  0  0  0  0  0  0
    2.5781   -0.0923    0.0000 O   0  0  0  0  0  0  0  0  0  0  0  0
    3.2209   -1.2058    0.0000 O   0  0  0  0  0  0  0  0  0  0  0  0
    4.1133   -1.9936    0.0000 O   0  0  0  0  0  0  0  0  0  0  0  0
    5.8192   -1.6928    0.0000 O   0  0  0  0  0  0  0  0  0  0  0  0
    9.4019    0.5000    0.0000 O   0  0  0  0  0  0  0  0  0  0  0  0
    7.6698    3.5000    0.0000 O   0  0  0  0  0  0  0  0  0  0  0  0
    9.1787    1.7660    0.0000 O   0  0  0  0  0  0  0  0  0  0  0  0
    8.6546    2.6736    0.0000 O   0  0  0  0  0  0  0  0  0  0  0  0
    2.5924    2.6928    0.0000 O   0  0  0  0  0  0  0  0  0  0  0  0
    5.9378   -3.5000    0.0000 O   0  0  0  0  0  0  0  0  0  0  0  0
    9.4019   -0.5000    0.0000 O   0  0  0  0  0  0  0  0  0  0  0  0
    2.0000    1.0653    0.0000 O   0  0  0  0  0  0  0  0  0  0  0  0
    5.0718   -2.0000    0.0000 O   0  0  0  0  0  0  0  0  0  0  0  0
    8.5359   -2.0000    0.0000 O   0  0  0  0  0  0  0  0  0  0  0  0
    6.8038    1.0000    0.0000 N   0  0  0  0  0  0  0  0  0  0  0  0
    6.8038   -1.0000    0.0000 N   0  0  0  0  0  0  0  0  0  0  0  0
    5.9378    0.5000    0.0000 C   0  0  3  0  0  0  0  0  0  0  0  0
    5.0718    1.0000    0.0000 C   0  0  3  0  0  0  0  0  0  0  0  0
    4.2057    0.5000    0.0000 C   0  0  3  0  0  0  0  0  0  0  0  0
    5.9378   -0.5000    0.0000 C   0  0  0  0  0  0  0  0  0  0  0  0
    4.7057   -0.3660    0.0000 C   0  0  0  0  0  0  0  0  0  0  0  0
    5.0718    2.0000    0.0000 C   0  0  0  0  0  0  0  0  0  0  0  0
    7.6698    0.5000    0.0000 C   0  0  0  0  0  0  0  0  0  0  0  0
    6.8038    2.0000    0.0000 C   0  0  0  0  0  0  0  0  0  0  0  0
    3.5629   -0.2660    0.0000 C   0  0  0  0  0  0  0  0  0  0  0  0
    6.8038   -2.0000    0.0000 C   0  0  0  0  0  0  0  0  0  0  0  0
    7.6698   -0.5000    0.0000 C   0  0  0  0  0  0  0  0  0  0  0  0
    4.8794   -1.3508    0.0000 C   0  0  0  0  0  0  0  0  0  0  0  0
    8.5359    1.0000    0.0000 C   0  0  0  0  0  0  0  0  0  0  0  0
    7.6698    2.5000    0.0000 C   0  0  0  0  0  0  0  0  0  0  0  0
    2.7661    1.7081    0.0000 C   0  0  0  0  0  0  0  0  0  0  0  0
    5.9378   -2.5000    0.0000 C   0  0  0  0  0  0  0  0  0  0  0  0
    8.5359   -1.0000    0.0000 C   0  0  0  0  0  0  0  0  0  0  0  0
    5.9378    1.1200    0.0000 H   0  0  0  0  0  0  0  0  0  0  0  0
    4.5348    1.3100    0.0000 H   0  0  0  0  0  0  0  0  0  0  0  0
    5.3272   -0.3923    0.0000 H   0  0  0  0  0  0  0  0  0  0  0  0
    5.7257   -1.0826    0.0000 H   0  0  0  0  0  0  0  0  0  0  0  0
    5.3090   -0.5090    0.0000 H   0  0  0  0  0  0  0  0  0  0  0  0
    4.1231   -0.5781    0.0000 H   0  0  0  0  0  0  0  0  0  0  0  0
    7.2713    0.0251    0.0000 H   0  0  0  0  0  0  0  0  0  0  0  0
    8.0684    0.0251    0.0000 H   0  0  0  0  0  0  0  0  0  0  0  0
    6.5918    2.5826    0.0000 H   0  0  0  0  0  0  0  0  0  0  0  0
    6.1932    1.8923    0.0000 H   0  0  0  0  0  0  0  0  0  0  0  0
    7.0159   -2.5826    0.0000 H   0  0  0  0  0  0  0  0  0  0  0  0
    7.4144   -1.8923    0.0000 H   0  0  0  0  0  0  0  0  0  0  0  0
    8.0684   -0.0251    0.0000 H   0  0  0  0  0  0  0  0  0  0  0  0
    7.2713   -0.0251    0.0000 H   0  0  0  0  0  0  0  0  0  0  0  0
    5.9378    3.1200    0.0000 H   0  0  0  0  0  0  0  0  0  0  0  0
    2.1796   -0.5673    0.0000 H   0  0  0  0  0  0  0  0  0  0  0  0
    4.2210   -2.6042    0.0000 H   0  0  0  0  0  0  0  0  0  0  0  0
    9.9388    0.8100    0.0000 H   0  0  0  0  0  0  0  0  0  0  0  0
    8.2068    3.8100    0.0000 H   0  0  0  0  0  0  0  0  0  0  0  0
    2.0098    2.9049    0.0000 H   0  0  0  0  0  0  0  0  0  0  0  0
    5.4009   -3.8100    0.0000 H   0  0  0  0  0  0  0  0  0  0  0  0
    9.9388   -0.8100    0.0000 H   0  0  0  0  0  0  0  0  0  0  0  0
  1 22  1  0  0  0  0
  1 34  1  0  0  0  0
  2 25  1  0  0  0  0
  2 51  1  0  0  0  0
  3 25  2  0  0  0  0
  4 28  1  0  0  0  0
  4 52  1  0  0  0  0
  5 28  2  0  0  0  0
  6 31  1  0  0  0  0
  6 53  1  0  0  0  0
  7 31  2  0  0  0  0
  8 32  1  0  0  0  0
  8 54  1  0  0  0  0
  9 33  1  0  0  0  0
  9 55  1  0  0  0  0
 10 32  2  0  0  0  0
 11 33  2  0  0  0  0
 12 34  1  0  0  0  0
 12 56  1  0  0  0  0
 13 35  1  0  0  0  0
 13 57  1  0  0  0  0
 14 36  1  0  0  0  0
 14 58  1  0  0  0  0
 15 34  2  0  0  0  0
 16 35  2  0  0  0  0
 17 36  2  0  0  0  0
 18 20  1  0  0  0  0
 18 26  1  0  0  0  0
 18 27  1  0  0  0  0
 19 23  1  0  0  0  0
 19 29  1  0  0  0  0
 19 30  1  0  0  0  0
 20 21  1  0  0  0  0
 20 23  1  0  0  0  0
 20 37  1  0  0  0  0
 21 22  1  0  0  0  0
 21 25  1  0  0  0  0
 21 38  1  0  0  0  0
 22 24  1  0  0  0  0
 22 28  1  0  0  0  0
 23 39  1  0  0  0  0
 23 40  1  0  0  0  0
 24 31  1  0  0  0  0
 24 41  1  0  0  0  0
 24 42  1  0  0  0  0
 26 32  1  0  0  0  0
 26 43  1  0  0  0  0
 26 44  1  0  0  0  0
 27 33  1  0  0  0  0
 27 45  1  0  0  0  0
 27 46  1  0  0  0  0
 29 35  1  0  0  0  0
 29 47  1  0  0  0  0
 29 48  1  0  0  0  0
 30 36  1  0  0  0  0
 30 49  1  0  0  0  0
 30 50  1  0  0  0  0
M  END
> <PUBCHEM_COMPOUND_CID>
91249517

> <PUBCHEM_COMPOUND_CANONICALIZED>
1

> <PUBCHEM_CACTVS_COMPLEXITY>
885

> <PUBCHEM_CACTVS_HBOND_ACCEPTOR>
19

> <PUBCHEM_CACTVS_HBOND_DONOR>
8

> <PUBCHEM_CACTVS_ROTATABLE_BOND>
19

> <PUBCHEM_CACTVS_SUBSKEYS>
AAADceB7PgAAAAAAAAAAAAAAAAAAAAAAAAAAAAAAAAAAAAAAAAAAHgAACAAADWzBgAQACAMABgAIAACQCAIAAAAAAAAAAAHIAAATQB4AgCQUQAAHIACXAAH/fwMegAAAAAAAAAAAAAAAAAAAAAAAAAAAAA==

> <PUBCHEM_IUPAC_OPENEYE_NAME>
4,5-bis[bis(carboxymethyl)amino]-2-carboxyoxy-pentane-1,2,3-tricarboxylic acid

> <PUBCHEM_IUPAC_CAS_NAME>
4,5-bis[bis(carboxymethyl)amino]-2-carboxyoxypentane-1,2,3-tricarboxylic acid

> <PUBCHEM_IUPAC_NAME_MARKUP>
4,5-bis[bis(carboxymethyl)amino]-2-carboxyoxypentane-1,2,3-tricarboxylic acid

> <PUBCHEM_IUPAC_NAME>
4,5-bis[bis(carboxymethyl)amino]-2-carboxyoxypentane-1,2,3-tricarboxylic acid

> <PUBCHEM_IUPAC_SYSTEMATIC_NAME>
4,5-bis[bis(2-hydroxy-2-oxoethyl)amino]-2-carboxyoxy-pentane-1,2,3-tricarboxylic acid

> <PUBCHEM_IUPAC_TRADITIONAL_NAME>
4,5-bis[bis(carboxymethyl)amino]-2-carboxyoxy-pentane-1,2,3-tricarboxylic acid

> <PUBCHEM_IUPAC_INCHI>
InChI=1S/C17H22N2O17/c20-8(21)1-17(15(32)33,36-16(34)35)13(14(30)31)7(19(5-11(26)27)6-12(28)29)2-18(3-9(22)23)4-10(24)25/h7,13H,1-6H2,(H,20,21)(H,22,23)(H,24,25)(H,26,27)(H,28,29)(H,30,31)(H,32,33)(H,34,35)

> <PUBCHEM_IUPAC_INCHIKEY>
ZURANFQIOPHEAU-UHFFFAOYSA-N

> <PUBCHEM_XLOGP3_AA>
-7.4

> <PUBCHEM_EXACT_MASS>
526.09184724

> <PUBCHEM_MOLECULAR_FORMULA>
C17H22N2O17

> <PUBCHEM_MOLECULAR_WEIGHT>
526.4

> <PUBCHEM_OPENEYE_CAN_SMILES>
C(C(C(C(=O)O)C(CC(=O)O)(C(=O)O)OC(=O)O)N(CC(=O)O)CC(=O)O)N(CC(=O)O)CC(=O)O

> <PUBCHEM_OPENEYE_ISO_SMILES>
C(C(C(C(=O)O)C(CC(=O)O)(C(=O)O)OC(=O)O)N(CC(=O)O)CC(=O)O)N(CC(=O)O)CC(=O)O

> <PUBCHEM_CACTVS_TPSA>
314

> <PUBCHEM_MONOISOTOPIC_WEIGHT>
526.09184724

> <PUBCHEM_TOTAL_CHARGE>
0

> <PUBCHEM_HEAVY_ATOM_COUNT>
36

> <PUBCHEM_ATOM_DEF_STEREO_COUNT>
0

> <PUBCHEM_ATOM_UDEF_STEREO_COUNT>
3

> <PUBCHEM_BOND_DEF_STEREO_COUNT>
0

> <PUBCHEM_BOND_UDEF_STEREO_COUNT>
0

> <PUBCHEM_ISOTOPIC_ATOM_COUNT>
0

> <PUBCHEM_COMPONENT_COUNT>
1

> <PUBCHEM_CACTVS_TAUTO_COUNT>
-1

> <PUBCHEM_COORDINATE_TYPE>
1
5
255

> <PUBCHEM_BONDANNOTATIONS>
20  23  3
21  25  3
22  24  3

$$$$
