 
  -OEChem-10192104232D

 51 52  0     1  0  0  0  0  0999 V2000
    5.5157    0.1559    0.0000 O   0  0  0  0  0  0  0  0  0  0  0  0
    4.4024    1.4828    0.0000 O   0  0  0  0  0  0  0  0  0  0  0  0
    6.1081    1.7835    0.0000 O   0  0  0  0  0  0  0  0  0  0  0  0
    2.3100    0.7212    0.0000 O   0  0  0  0  0  0  0  0  0  0  0  0
    8.7215    1.3227    0.0000 O   0  0  0  0  0  0  0  0  0  0  0  0
    3.4836    1.7060    0.0000 O   0  0  0  0  0  0  0  0  0  0  0  0
    7.2215    2.1887    0.0000 O   0  0  0  0  0  0  0  0  0  0  0  0
    3.8100   -0.1448    0.0000 C   0  0  3  0  0  0  0  0  0  0  0  0
    7.2215    0.4567    0.0000 C   0  0  3  0  0  0  0  0  0  0  0  0
    2.9440   -1.6448    0.0000 C   0  0  3  0  0  0  0  0  0  0  0  0
    7.5222   -1.2490    0.0000 C   0  0  3  0  0  0  0  0  0  0  0  0
    2.9440   -0.6448    0.0000 C   0  0  0  0  0  0  0  0  0  0  0  0
    6.8794   -0.4830    0.0000 C   0  0  0  0  0  0  0  0  0  0  0  0
    4.6760   -0.6448    0.0000 C   0  0  0  0  0  0  0  0  0  0  0  0
    8.2063    0.6303    0.0000 C   0  0  0  0  0  0  0  0  0  0  0  0
    3.8100   -2.1448    0.0000 C   0  0  0  0  0  0  0  0  0  0  0  0
    8.5070   -1.0754    0.0000 C   0  0  0  0  0  0  0  0  0  0  0  0
    4.6760   -1.6448    0.0000 C   0  0  0  0  0  0  0  0  0  0  0  0
    8.8491   -0.1357    0.0000 C   0  0  0  0  0  0  0  0  0  0  0  0
    4.5760    0.4979    0.0000 C   0  0  0  0  0  0  0  0  0  0  0  0
    6.2818    0.7987    0.0000 C   0  0  0  0  0  0  0  0  0  0  0  0
    2.0780   -2.1448    0.0000 C   0  0  0  0  0  0  0  0  0  0  0  0
    7.1802   -2.1887    0.0000 C   0  0  0  0  0  0  0  0  0  0  0  0
    3.3100    0.7212    0.0000 C   0  0  0  0  0  0  0  0  0  0  0  0
    7.7215    1.3227    0.0000 C   0  0  0  0  0  0  0  0  0  0  0  0
    2.4070   -1.3349    0.0000 H   0  0  0  0  0  0  0  0  0  0  0  0
    6.9117   -1.3567    0.0000 H   0  0  0  0  0  0  0  0  0  0  0  0
    2.7319   -0.0622    0.0000 H   0  0  0  0  0  0  0  0  0  0  0  0
    2.3334   -0.7525    0.0000 H   0  0  0  0  0  0  0  0  0  0  0  0
    6.3425   -0.1730    0.0000 H   0  0  0  0  0  0  0  0  0  0  0  0
    6.4809   -0.9580    0.0000 H   0  0  0  0  0  0  0  0  0  0  0  0
    5.2866   -0.7525    0.0000 H   0  0  0  0  0  0  0  0  0  0  0  0
    4.8881   -0.0622    0.0000 H   0  0  0  0  0  0  0  0  0  0  0  0
    8.7432    0.9403    0.0000 H   0  0  0  0  0  0  0  0  0  0  0  0
    7.9942    1.2130    0.0000 H   0  0  0  0  0  0  0  0  0  0  0  0
    3.4115   -2.6198    0.0000 H   0  0  0  0  0  0  0  0  0  0  0  0
    4.2085   -2.6198    0.0000 H   0  0  0  0  0  0  0  0  0  0  0  0
    8.5070   -1.6954    0.0000 H   0  0  0  0  0  0  0  0  0  0  0  0
    9.1176   -1.1831    0.0000 H   0  0  0  0  0  0  0  0  0  0  0  0
    4.8881   -2.2274    0.0000 H   0  0  0  0  0  0  0  0  0  0  0  0
    5.2866   -1.5372    0.0000 H   0  0  0  0  0  0  0  0  0  0  0  0
    9.3860   -0.4457    0.0000 H   0  0  0  0  0  0  0  0  0  0  0  0
    9.2476    0.3392    0.0000 H   0  0  0  0  0  0  0  0  0  0  0  0
    1.7680   -1.6079    0.0000 H   0  0  0  0  0  0  0  0  0  0  0  0
    1.5410   -2.4548    0.0000 H   0  0  0  0  0  0  0  0  0  0  0  0
    2.3880   -2.6818    0.0000 H   0  0  0  0  0  0  0  0  0  0  0  0
    6.5976   -1.9767    0.0000 H   0  0  0  0  0  0  0  0  0  0  0  0
    6.9682   -2.7714    0.0000 H   0  0  0  0  0  0  0  0  0  0  0  0
    7.7628   -2.4008    0.0000 H   0  0  0  0  0  0  0  0  0  0  0  0
    2.0000    1.2581    0.0000 H   0  0  0  0  0  0  0  0  0  0  0  0
    9.0315    1.8596    0.0000 H   0  0  0  0  0  0  0  0  0  0  0  0
  1 20  1  0  0  0  0
  1 21  1  0  0  0  0
  2 20  2  0  0  0  0
  3 21  2  0  0  0  0
  4 24  1  0  0  0  0
  4 50  1  0  0  0  0
  5 25  1  0  0  0  0
  5 51  1  0  0  0  0
  6 24  2  0  0  0  0
  7 25  2  0  0  0  0
  8 12  1  0  0  0  0
  8 14  1  0  0  0  0
  8 20  1  0  0  0  0
  8 24  1  0  0  0  0
  9 13  1  0  0  0  0
  9 15  1  0  0  0  0
  9 21  1  0  0  0  0
  9 25  1  0  0  0  0
 10 12  1  0  0  0  0
 10 16  1  0  0  0  0
 10 22  1  0  0  0  0
 10 26  1  0  0  0  0
 11 13  1  0  0  0  0
 11 17  1  0  0  0  0
 11 23  1  0  0  0  0
 11 27  1  0  0  0  0
 12 28  1  0  0  0  0
 12 29  1  0  0  0  0
 13 30  1  0  0  0  0
 13 31  1  0  0  0  0
 14 18  1  0  0  0  0
 14 32  1  0  0  0  0
 14 33  1  0  0  0  0
 15 19  1  0  0  0  0
 15 34  1  0  0  0  0
 15 35  1  0  0  0  0
 16 18  1  0  0  0  0
 16 36  1  0  0  0  0
 16 37  1  0  0  0  0
 17 19  1  0  0  0  0
 17 38  1  0  0  0  0
 17 39  1  0  0  0  0
 18 40  1  0  0  0  0
 18 41  1  0  0  0  0
 19 42  1  0  0  0  0
 19 43  1  0  0  0  0
 22 44  1  0  0  0  0
 22 45  1  0  0  0  0
 22 46  1  0  0  0  0
 23 47  1  0  0  0  0
 23 48  1  0  0  0  0
 23 49  1  0  0  0  0
M  END
> <PUBCHEM_COMPOUND_CID>
87135127

> <PUBCHEM_COMPOUND_CANONICALIZED>
1

> <PUBCHEM_CACTVS_COMPLEXITY>
534

> <PUBCHEM_CACTVS_HBOND_ACCEPTOR>
7

> <PUBCHEM_CACTVS_HBOND_DONOR>
2

> <PUBCHEM_CACTVS_ROTATABLE_BOND>
6

> <PUBCHEM_CACTVS_SUBSKEYS>
AAADceB4OAAAAAAAAAAAAAAAAAAAAAAAAAAwYAAAAAAAAAAAAAAAGgAACAAADwCAgAACCAAABgAIAACQCAAAAAAAAAAAAAEAAAAAABYIAAACQAAFIAAAAAGIyGCPAAAAAAAAAAAAAAQAAAAAAAAAAAAAAA==

> <PUBCHEM_IUPAC_OPENEYE_NAME>
1-(1-carboxy-3-methyl-cyclohexanecarbonyl)oxycarbonyl-3-methyl-cyclohexanecarboxylic acid

> <PUBCHEM_IUPAC_CAS_NAME>
1-[[(1-carboxy-3-methylcyclohexyl)-oxomethoxy]-oxomethyl]-3-methyl-1-cyclohexanecarboxylic acid

> <PUBCHEM_IUPAC_NAME_MARKUP>
1-(1-carboxy-3-methylcyclohexanecarbonyl)oxycarbonyl-3-methylcyclohexane-1-carboxylic acid

> <PUBCHEM_IUPAC_NAME>
1-(1-carboxy-3-methylcyclohexanecarbonyl)oxycarbonyl-3-methylcyclohexane-1-carboxylic acid

> <PUBCHEM_IUPAC_SYSTEMATIC_NAME>
1-(1-carboxy-3-methyl-cyclohexyl)carbonyloxycarbonyl-3-methyl-cyclohexane-1-carboxylic acid

> <PUBCHEM_IUPAC_TRADITIONAL_NAME>
1-(1-carboxy-3-methyl-cyclohexanecarbonyl)oxycarbonyl-3-methyl-cyclohexanecarboxylic acid

> <PUBCHEM_IUPAC_INCHI>
InChI=1S/C18H26O7/c1-11-5-3-7-17(9-11,13(19)20)15(23)25-16(24)18(14(21)22)8-4-6-12(2)10-18/h11-12H,3-10H2,1-2H3,(H,19,20)(H,21,22)

> <PUBCHEM_IUPAC_INCHIKEY>
HKEDUESLJQENQQ-UHFFFAOYSA-N

> <PUBCHEM_XLOGP3_AA>
3.7

> <PUBCHEM_EXACT_MASS>
354.16785316

> <PUBCHEM_MOLECULAR_FORMULA>
C18H26O7

> <PUBCHEM_MOLECULAR_WEIGHT>
354.4

> <PUBCHEM_OPENEYE_CAN_SMILES>
CC1CCCC(C1)(C(=O)O)C(=O)OC(=O)C2(CCCC(C2)C)C(=O)O

> <PUBCHEM_OPENEYE_ISO_SMILES>
CC1CCCC(C1)(C(=O)O)C(=O)OC(=O)C2(CCCC(C2)C)C(=O)O

> <PUBCHEM_CACTVS_TPSA>
118

> <PUBCHEM_MONOISOTOPIC_WEIGHT>
354.16785316

> <PUBCHEM_TOTAL_CHARGE>
0

> <PUBCHEM_HEAVY_ATOM_COUNT>
25

> <PUBCHEM_ATOM_DEF_STEREO_COUNT>
0

> <PUBCHEM_ATOM_UDEF_STEREO_COUNT>
4

> <PUBCHEM_BOND_DEF_STEREO_COUNT>
0

> <PUBCHEM_BOND_UDEF_STEREO_COUNT>
0

> <PUBCHEM_ISOTOPIC_ATOM_COUNT>
0

> <PUBCHEM_COMPONENT_COUNT>
1

> <PUBCHEM_CACTVS_TAUTO_COUNT>
-1

> <PUBCHEM_COORDINATE_TYPE>
1
5
255

> <PUBCHEM_BONDANNOTATIONS>
10  22  3
11  23  3
8  24  3
9  25  3

$$$$
