 
  -OEChem-10192103492D

 54 56  0     1  0  0  0  0  0999 V2000
    7.4128    3.1121    0.0000 S   0  0  0  0  0  0  0  0  0  0  0  0
    5.4641    0.4097    0.0000 S   0  0  0  0  0  0  0  0  0  0  0  0
    2.8660   -2.0903    0.0000 S   0  0  0  0  0  0  0  0  0  0  0  0
    8.2788    3.6121    0.0000 O   0  0  0  0  0  0  0  0  0  0  0  0
    7.2049    4.0903    0.0000 O   0  0  0  0  0  0  0  0  0  0  0  0
    4.4641    0.4097    0.0000 O   0  0  0  0  0  0  0  0  0  0  0  0
    6.4641    0.4097    0.0000 O   0  0  0  0  0  0  0  0  0  0  0  0
    2.3660   -1.2243    0.0000 O   0  0  0  0  0  0  0  0  0  0  0  0
    3.3660   -1.2243    0.0000 O   0  0  0  0  0  0  0  0  0  0  0  0
    5.4641    1.4097    0.0000 N   0  0  3  0  0  0  0  0  0  0  0  0
    3.7320   -2.5903    0.0000 N   0  0  3  0  0  0  0  0  0  0  0  0
    6.3301    1.9097    0.0000 C   0  0  3  0  0  0  0  0  0  0  0  0
    6.4347    2.9042    0.0000 C   0  0  0  0  0  0  0  0  0  0  0  0
    7.2437    1.5030    0.0000 C   0  0  0  0  0  0  0  0  0  0  0  0
    7.9128    2.2461    0.0000 C   0  0  0  0  0  0  0  0  0  0  0  0
    4.5981    1.9097    0.0000 C   0  0  0  0  0  0  0  0  0  0  0  0
    5.4641   -0.5903    0.0000 C   0  0  0  0  0  0  0  0  0  0  0  0
    3.7320   -3.5903    0.0000 C   0  0  0  0  0  0  0  0  0  0  0  0
    2.0000   -2.5903    0.0000 C   0  0  0  0  0  0  0  0  0  0  0  0
    2.8660   -4.0903    0.0000 C   0  0  0  0  0  0  0  0  0  0  0  0
    2.0000   -3.5903    0.0000 C   0  0  0  0  0  0  0  0  0  0  0  0
    4.5981   -2.0903    0.0000 C   0  0  0  0  0  0  0  0  0  0  0  0
    4.5981   -1.0903    0.0000 C   0  0  0  0  0  0  0  0  0  0  0  0
    4.5981    2.9097    0.0000 C   0  0  0  0  0  0  0  0  0  0  0  0
    6.3301   -1.0903    0.0000 C   0  0  0  0  0  0  0  0  0  0  0  0
    5.4641   -2.5903    0.0000 C   0  0  0  0  0  0  0  0  0  0  0  0
    6.3301   -2.0903    0.0000 C   0  0  0  0  0  0  0  0  0  0  0  0
    7.1962   -0.5903    0.0000 C   0  0  0  0  0  0  0  0  0  0  0  0
    5.8102    2.2474    0.0000 H   0  0  0  0  0  0  0  0  0  0  0  0
    6.3698    3.5208    0.0000 H   0  0  0  0  0  0  0  0  0  0  0  0
    5.8147    2.9042    0.0000 H   0  0  0  0  0  0  0  0  0  0  0  0
    6.9337    0.9660    0.0000 H   0  0  0  0  0  0  0  0  0  0  0  0
    7.7453    1.1386    0.0000 H   0  0  0  0  0  0  0  0  0  0  0  0
    8.3277    1.7854    0.0000 H   0  0  0  0  0  0  0  0  0  0  0  0
    8.4144    2.6105    0.0000 H   0  0  0  0  0  0  0  0  0  0  0  0
    3.9875    2.0174    0.0000 H   0  0  0  0  0  0  0  0  0  0  0  0
    4.3860    1.3271    0.0000 H   0  0  0  0  0  0  0  0  0  0  0  0
    3.9441   -4.1729    0.0000 H   0  0  0  0  0  0  0  0  0  0  0  0
    4.3426   -3.4826    0.0000 H   0  0  0  0  0  0  0  0  0  0  0  0
    1.7880   -2.0077    0.0000 H   0  0  0  0  0  0  0  0  0  0  0  0
    1.3894   -2.6980    0.0000 H   0  0  0  0  0  0  0  0  0  0  0  0
    2.4675   -4.5652    0.0000 H   0  0  0  0  0  0  0  0  0  0  0  0
    3.2646   -4.5652    0.0000 H   0  0  0  0  0  0  0  0  0  0  0  0
    1.3894   -3.4826    0.0000 H   0  0  0  0  0  0  0  0  0  0  0  0
    1.7880   -4.1729    0.0000 H   0  0  0  0  0  0  0  0  0  0  0  0
    4.0611   -0.7803    0.0000 H   0  0  0  0  0  0  0  0  0  0  0  0
    5.2181    2.9097    0.0000 H   0  0  0  0  0  0  0  0  0  0  0  0
    4.5981    3.5297    0.0000 H   0  0  0  0  0  0  0  0  0  0  0  0
    3.9781    2.9097    0.0000 H   0  0  0  0  0  0  0  0  0  0  0  0
    5.4641   -3.2103    0.0000 H   0  0  0  0  0  0  0  0  0  0  0  0
    6.8671   -2.4003    0.0000 H   0  0  0  0  0  0  0  0  0  0  0  0
    7.5062   -1.1272    0.0000 H   0  0  0  0  0  0  0  0  0  0  0  0
    7.7331   -0.2803    0.0000 H   0  0  0  0  0  0  0  0  0  0  0  0
    6.8862   -0.0534    0.0000 H   0  0  0  0  0  0  0  0  0  0  0  0
  1  4  2  0  0  0  0
  1  5  2  0  0  0  0
  1 13  1  0  0  0  0
  1 15  1  0  0  0  0
  2  6  2  0  0  0  0
  2  7  2  0  0  0  0
  2 10  1  0  0  0  0
  2 17  1  0  0  0  0
  3  8  2  0  0  0  0
  3  9  2  0  0  0  0
  3 11  1  0  0  0  0
  3 19  1  0  0  0  0
 10 12  1  0  0  0  0
 10 16  1  0  0  0  0
 11 18  1  0  0  0  0
 11 22  1  0  0  0  0
 12 13  1  0  0  0  0
 12 14  1  0  0  0  0
 12 29  1  0  0  0  0
 13 30  1  0  0  0  0
 13 31  1  0  0  0  0
 14 15  1  0  0  0  0
 14 32  1  0  0  0  0
 14 33  1  0  0  0  0
 15 34  1  0  0  0  0
 15 35  1  0  0  0  0
 16 24  1  0  0  0  0
 16 36  1  0  0  0  0
 16 37  1  0  0  0  0
 17 23  1  0  0  0  0
 17 25  2  0  0  0  0
 18 20  1  0  0  0  0
 18 38  1  0  0  0  0
 18 39  1  0  0  0  0
 19 21  1  0  0  0  0
 19 40  1  0  0  0  0
 19 41  1  0  0  0  0
 20 21  1  0  0  0  0
 20 42  1  0  0  0  0
 20 43  1  0  0  0  0
 21 44  1  0  0  0  0
 21 45  1  0  0  0  0
 22 23  2  0  0  0  0
 22 26  1  0  0  0  0
 23 46  1  0  0  0  0
 24 47  1  0  0  0  0
 24 48  1  0  0  0  0
 24 49  1  0  0  0  0
 25 27  1  0  0  0  0
 25 28  1  0  0  0  0
 26 27  2  0  0  0  0
 26 50  1  0  0  0  0
 27 51  1  0  0  0  0
 28 52  1  0  0  0  0
 28 53  1  0  0  0  0
 28 54  1  0  0  0  0
M  END
> <PUBCHEM_COMPOUND_CID>
24318699

> <PUBCHEM_COMPOUND_CANONICALIZED>
1

> <PUBCHEM_CACTVS_COMPLEXITY>
867

> <PUBCHEM_CACTVS_HBOND_ACCEPTOR>
8

> <PUBCHEM_CACTVS_HBOND_DONOR>
0

> <PUBCHEM_CACTVS_ROTATABLE_BOND>
5

> <PUBCHEM_CACTVS_SUBSKEYS>
AAADceB7OABgAAAAAAAAAAAAAAAAASAAAAA8QAAAAAAAAAABAAAAHAQAQAAADCjFWASywYIAAAqAAiRCQHDCABAhAhAIiBgIZIgIICLgkZGEIAxggADoyAcQgAAOCAAAACAEAAAQAAAAQAgAAAAAAAAAAA==

> <PUBCHEM_IUPAC_OPENEYE_NAME>
5-(1,1-dioxothiazinan-2-yl)-N-(1,1-dioxothiolan-3-yl)-N-ethyl-2-methyl-benzenesulfonamide

> <PUBCHEM_IUPAC_CAS_NAME>
5-(1,1-dioxo-2-thiazinanyl)-N-(1,1-dioxo-3-thiolanyl)-N-ethyl-2-methylbenzenesulfonamide

> <PUBCHEM_IUPAC_NAME_MARKUP>
5-(1,1-dioxothiazinan-2-yl)-<I>N</I>-(1,1-dioxothiolan-3-yl)-<I>N</I>-ethyl-2-methylbenzenesulfonamide

> <PUBCHEM_IUPAC_NAME>
5-(1,1-dioxothiazinan-2-yl)-N-(1,1-dioxothiolan-3-yl)-N-ethyl-2-methylbenzenesulfonamide

> <PUBCHEM_IUPAC_SYSTEMATIC_NAME>
5-[1,1-bis(oxidanylidene)-1,2-thiazinan-2-yl]-N-[1,1-bis(oxidanylidene)thiolan-3-yl]-N-ethyl-2-methyl-benzenesulfonamide

> <PUBCHEM_IUPAC_TRADITIONAL_NAME>
5-(1,1-diketothiazinan-2-yl)-N-(1,1-diketothiolan-3-yl)-N-ethyl-2-methyl-benzenesulfonamide

> <PUBCHEM_IUPAC_INCHI>
InChI=1S/C17H26N2O6S3/c1-3-18(16-8-11-26(20,21)13-16)28(24,25)17-12-15(7-6-14(17)2)19-9-4-5-10-27(19,22)23/h6-7,12,16H,3-5,8-11,13H2,1-2H3

> <PUBCHEM_IUPAC_INCHIKEY>
FKIGSAPCKVREBJ-UHFFFAOYSA-N

> <PUBCHEM_XLOGP3_AA>
1

> <PUBCHEM_EXACT_MASS>
450.09530007

> <PUBCHEM_MOLECULAR_FORMULA>
C17H26N2O6S3

> <PUBCHEM_MOLECULAR_WEIGHT>
450.6

> <PUBCHEM_OPENEYE_CAN_SMILES>
CCN(C1CCS(=O)(=O)C1)S(=O)(=O)C2=C(C=CC(=C2)N3CCCCS3(=O)=O)C

> <PUBCHEM_OPENEYE_ISO_SMILES>
CCN(C1CCS(=O)(=O)C1)S(=O)(=O)C2=C(C=CC(=C2)N3CCCCS3(=O)=O)C

> <PUBCHEM_CACTVS_TPSA>
134

> <PUBCHEM_MONOISOTOPIC_WEIGHT>
450.09530007

> <PUBCHEM_TOTAL_CHARGE>
0

> <PUBCHEM_HEAVY_ATOM_COUNT>
28

> <PUBCHEM_ATOM_DEF_STEREO_COUNT>
0

> <PUBCHEM_ATOM_UDEF_STEREO_COUNT>
1

> <PUBCHEM_BOND_DEF_STEREO_COUNT>
0

> <PUBCHEM_BOND_UDEF_STEREO_COUNT>
0

> <PUBCHEM_ISOTOPIC_ATOM_COUNT>
0

> <PUBCHEM_COMPONENT_COUNT>
1

> <PUBCHEM_CACTVS_TAUTO_COUNT>
-1

> <PUBCHEM_COORDINATE_TYPE>
1
5
255

> <PUBCHEM_BONDANNOTATIONS>
12  10  3
17  23  8
17  25  8
22  23  8
22  26  8
25  27  8
26  27  8

$$$$
