 
  -OEChem-10192103452D

 22 22  0     1  0  0  0  0  0999 V2000
    2.0000   -1.4400    0.0000 O   0  0  0  0  0  0  0  0  0  0  0  0
    4.5981    2.0600    0.0000 O   0  0  0  0  0  0  0  0  0  0  0  0
    3.7320   -1.4400    0.0000 C   0  0  0  0  0  0  0  0  0  0  0  0
    2.8660   -0.9400    0.0000 C   0  0  3  0  0  0  0  0  0  0  0  0
    4.5981   -0.9400    0.0000 C   0  0  0  0  0  0  0  0  0  0  0  0
    4.5981    0.0600    0.0000 C   0  0  0  0  0  0  0  0  0  0  0  0
    2.8660    0.0600    0.0000 C   0  0  0  0  0  0  0  0  0  0  0  0
    3.7320    0.5600    0.0000 C   0  0  0  0  0  0  0  0  0  0  0  0
    2.0000    0.5600    0.0000 C   0  0  0  0  0  0  0  0  0  0  0  0
    3.7320    1.5600    0.0000 C   0  0  0  0  0  0  0  0  0  0  0  0
    3.3335   -1.9150    0.0000 H   0  0  0  0  0  0  0  0  0  0  0  0
    4.1306   -1.9150    0.0000 H   0  0  0  0  0  0  0  0  0  0  0  0
    2.3291   -0.6300    0.0000 H   0  0  0  0  0  0  0  0  0  0  0  0
    4.8101   -1.5226    0.0000 H   0  0  0  0  0  0  0  0  0  0  0  0
    5.2087   -0.8323    0.0000 H   0  0  0  0  0  0  0  0  0  0  0  0
    5.2087   -0.0477    0.0000 H   0  0  0  0  0  0  0  0  0  0  0  0
    4.8101    0.6426    0.0000 H   0  0  0  0  0  0  0  0  0  0  0  0
    2.3100    1.0969    0.0000 H   0  0  0  0  0  0  0  0  0  0  0  0
    1.4631    0.8700    0.0000 H   0  0  0  0  0  0  0  0  0  0  0  0
    1.6900    0.0231    0.0000 H   0  0  0  0  0  0  0  0  0  0  0  0
    2.0000   -2.0600    0.0000 H   0  0  0  0  0  0  0  0  0  0  0  0
    3.1951    1.8700    0.0000 H   0  0  0  0  0  0  0  0  0  0  0  0
  1  4  1  0  0  0  0
  1 21  1  0  0  0  0
  2 10  2  0  0  0  0
  3  4  1  0  0  0  0
  3  5  1  0  0  0  0
  3 11  1  0  0  0  0
  3 12  1  0  0  0  0
  4  7  1  0  0  0  0
  4 13  1  0  0  0  0
  5  6  1  0  0  0  0
  5 14  1  0  0  0  0
  5 15  1  0  0  0  0
  6  8  1  0  0  0  0
  6 16  1  0  0  0  0
  6 17  1  0  0  0  0
  7  8  2  0  0  0  0
  7  9  1  0  0  0  0
  8 10  1  0  0  0  0
  9 18  1  0  0  0  0
  9 19  1  0  0  0  0
  9 20  1  0  0  0  0
 10 22  1  0  0  0  0
M  END
> <PUBCHEM_COMPOUND_CID>
10701904

> <PUBCHEM_COMPOUND_CANONICALIZED>
1

> <PUBCHEM_CACTVS_COMPLEXITY>
170

> <PUBCHEM_CACTVS_HBOND_ACCEPTOR>
2

> <PUBCHEM_CACTVS_HBOND_DONOR>
1

> <PUBCHEM_CACTVS_ROTATABLE_BOND>
1

> <PUBCHEM_CACTVS_SUBSKEYS>
AAADccBwMAAAAAAAAAAAAAAAAAAAAAAAAAAgAAAAAAAAAAAAAAAAGgAACAAADBSggAICAAAAAgCIAghQgAAAAAAgAAAACAEAAEgAFBIAAAAAUAAEgAAIEQOIyICAAAAAAAAAAAAAAAAAAAAAAAAAAAAAAA==

> <PUBCHEM_IUPAC_OPENEYE_NAME>
3-hydroxy-2-methyl-cyclohexene-1-carbaldehyde

> <PUBCHEM_IUPAC_CAS_NAME>
3-hydroxy-2-methyl-1-cyclohexenecarboxaldehyde

> <PUBCHEM_IUPAC_NAME_MARKUP>
3-hydroxy-2-methylcyclohexene-1-carbaldehyde

> <PUBCHEM_IUPAC_NAME>
3-hydroxy-2-methylcyclohexene-1-carbaldehyde

> <PUBCHEM_IUPAC_SYSTEMATIC_NAME>
2-methyl-3-oxidanyl-cyclohexene-1-carbaldehyde

> <PUBCHEM_IUPAC_TRADITIONAL_NAME>
3-hydroxy-2-methyl-cyclohexene-1-carbaldehyde

> <PUBCHEM_IUPAC_INCHI>
InChI=1S/C8H12O2/c1-6-7(5-9)3-2-4-8(6)10/h5,8,10H,2-4H2,1H3

> <PUBCHEM_IUPAC_INCHIKEY>
FLLYHVCZPMOVGH-UHFFFAOYSA-N

> <PUBCHEM_XLOGP3_AA>
0.1

> <PUBCHEM_EXACT_MASS>
140.083729621

> <PUBCHEM_MOLECULAR_FORMULA>
C8H12O2

> <PUBCHEM_MOLECULAR_WEIGHT>
140.18

> <PUBCHEM_OPENEYE_CAN_SMILES>
CC1=C(CCCC1O)C=O

> <PUBCHEM_OPENEYE_ISO_SMILES>
CC1=C(CCCC1O)C=O

> <PUBCHEM_CACTVS_TPSA>
37.3

> <PUBCHEM_MONOISOTOPIC_WEIGHT>
140.083729621

> <PUBCHEM_TOTAL_CHARGE>
0

> <PUBCHEM_HEAVY_ATOM_COUNT>
10

> <PUBCHEM_ATOM_DEF_STEREO_COUNT>
0

> <PUBCHEM_ATOM_UDEF_STEREO_COUNT>
1

> <PUBCHEM_BOND_DEF_STEREO_COUNT>
0

> <PUBCHEM_BOND_UDEF_STEREO_COUNT>
0

> <PUBCHEM_ISOTOPIC_ATOM_COUNT>
0

> <PUBCHEM_COMPONENT_COUNT>
1

> <PUBCHEM_CACTVS_TAUTO_COUNT>
-1

> <PUBCHEM_COORDINATE_TYPE>
1
5
255

> <PUBCHEM_BONDANNOTATIONS>
4  1  3

$$$$
