 
  -OEChem-10192104352D

 65 67  0     1  0  0  0  0  0999 V2000
    9.4651    1.0000    0.0000 O   0  0  0  0  0  0  0  0  0  0  0  0
    7.7331    1.0000    0.0000 O   0  0  0  0  0  0  0  0  0  0  0  0
    6.0010   -1.0000    0.0000 O   0  0  0  0  0  0  0  0  0  0  0  0
   11.1972   -1.0000    0.0000 O   0  0  0  0  0  0  0  0  0  0  0  0
    4.2690   -1.0000    0.0000 O   0  0  0  0  0  0  0  0  0  0  0  0
    7.7331   -2.0000    0.0000 O   0  0  0  0  0  0  0  0  0  0  0  0
   11.1972    2.0000    0.0000 O   0  0  0  0  0  0  0  0  0  0  0  0
    4.2690    2.0000    0.0000 O   0  0  0  0  0  0  0  0  0  0  0  0
    2.5369    1.0000    0.0000 O   0  0  0  0  0  0  0  0  0  0  0  0
   10.3312    0.5000    0.0000 C   0  0  1  0  0  0  0  0  0  0  0  0
    6.8671   -0.5000    0.0000 C   0  0  1  0  0  0  0  0  0  0  0  0
    7.7331   -1.0000    0.0000 C   0  0  2  0  0  0  0  0  0  0  0  0
    8.5991    0.5000    0.0000 C   0  0  3  0  0  0  0  0  0  0  0  0
   11.1972    1.0000    0.0000 C   0  0  2  0  0  0  0  0  0  0  0  0
    6.8671    0.5000    0.0000 C   0  0  1  0  0  0  0  0  0  0  0  0
    8.5991   -0.5000    0.0000 C   0  0  0  0  0  0  0  0  0  0  0  0
   10.3312   -0.5000    0.0000 C   0  0  1  0  0  0  0  0  0  0  0  0
   12.0632    0.5000    0.0000 C   0  0  0  0  0  0  0  0  0  0  0  0
   12.0632   -0.5000    0.0000 C   0  0  2  0  0  0  0  0  0  0  0  0
    5.1350   -0.5000    0.0000 C   0  0  2  0  0  0  0  0  0  0  0  0
    5.1350    0.5000    0.0000 C   0  0  0  0  0  0  0  0  0  0  0  0
    4.2690    1.0000    0.0000 C   0  0  1  0  0  0  0  0  0  0  0  0
    3.4030    0.5000    0.0000 C   0  0  1  0  0  0  0  0  0  0  0  0
    3.4030   -0.5000    0.0000 C   0  0  1  0  0  0  0  0  0  0  0  0
   12.9292   -1.0000    0.0000 C   0  0  0  0  0  0  0  0  0  0  0  0
    6.0010    1.0000    0.0000 C   0  0  0  0  0  0  0  0  0  0  0  0
    9.4651   -1.0000    0.0000 C   0  0  0  0  0  0  0  0  0  0  0  0
    2.5369   -1.0000    0.0000 C   0  0  0  0  0  0  0  0  0  0  0  0
   13.7953   -0.5000    0.0000 C   0  0  0  0  0  0  0  0  0  0  0  0
    9.7942    0.1900    0.0000 H   0  0  0  0  0  0  0  0  0  0  0  0
    6.3301   -0.1900    0.0000 H   0  0  0  0  0  0  0  0  0  0  0  0
    8.2700   -1.3100    0.0000 H   0  0  0  0  0  0  0  0  0  0  0  0
    8.5991    1.1200    0.0000 H   0  0  0  0  0  0  0  0  0  0  0  0
   11.7341    1.3100    0.0000 H   0  0  0  0  0  0  0  0  0  0  0  0
    6.8671    1.1200    0.0000 H   0  0  0  0  0  0  0  0  0  0  0  0
    8.8112   -1.0826    0.0000 H   0  0  0  0  0  0  0  0  0  0  0  0
    9.2097   -0.3923    0.0000 H   0  0  0  0  0  0  0  0  0  0  0  0
   10.3312   -1.1200    0.0000 H   0  0  0  0  0  0  0  0  0  0  0  0
   12.6738    0.3923    0.0000 H   0  0  0  0  0  0  0  0  0  0  0  0
   12.2753    1.0826    0.0000 H   0  0  0  0  0  0  0  0  0  0  0  0
   12.0632   -1.1200    0.0000 H   0  0  0  0  0  0  0  0  0  0  0  0
    5.1350   -1.1200    0.0000 H   0  0  0  0  0  0  0  0  0  0  0  0
    5.7456    0.3923    0.0000 H   0  0  0  0  0  0  0  0  0  0  0  0
    5.3471    1.0826    0.0000 H   0  0  0  0  0  0  0  0  0  0  0  0
    4.8059    1.3100    0.0000 H   0  0  0  0  0  0  0  0  0  0  0  0
    3.4030    1.1200    0.0000 H   0  0  0  0  0  0  0  0  0  0  0  0
    3.4030   -1.1200    0.0000 H   0  0  0  0  0  0  0  0  0  0  0  0
   12.5307   -1.4750    0.0000 H   0  0  0  0  0  0  0  0  0  0  0  0
   13.3278   -1.4750    0.0000 H   0  0  0  0  0  0  0  0  0  0  0  0
    6.3110    1.5369    0.0000 H   0  0  0  0  0  0  0  0  0  0  0  0
    5.4641    1.3100    0.0000 H   0  0  0  0  0  0  0  0  0  0  0  0
    5.6910    0.4631    0.0000 H   0  0  0  0  0  0  0  0  0  0  0  0
    9.1551   -0.4631    0.0000 H   0  0  0  0  0  0  0  0  0  0  0  0
    8.9282   -1.3100    0.0000 H   0  0  0  0  0  0  0  0  0  0  0  0
    9.7751   -1.5369    0.0000 H   0  0  0  0  0  0  0  0  0  0  0  0
    8.2700   -2.3100    0.0000 H   0  0  0  0  0  0  0  0  0  0  0  0
   11.7341    2.3100    0.0000 H   0  0  0  0  0  0  0  0  0  0  0  0
    2.2269   -0.4631    0.0000 H   0  0  0  0  0  0  0  0  0  0  0  0
    2.0000   -1.3100    0.0000 H   0  0  0  0  0  0  0  0  0  0  0  0
    2.8469   -1.5369    0.0000 H   0  0  0  0  0  0  0  0  0  0  0  0
   14.1053   -1.0369    0.0000 H   0  0  0  0  0  0  0  0  0  0  0  0
   14.3322   -0.1900    0.0000 H   0  0  0  0  0  0  0  0  0  0  0  0
   13.4853    0.0369    0.0000 H   0  0  0  0  0  0  0  0  0  0  0  0
    3.7320    2.3100    0.0000 H   0  0  0  0  0  0  0  0  0  0  0  0
    2.0000    0.6900    0.0000 H   0  0  0  0  0  0  0  0  0  0  0  0
 10  1  1  1  0  0  0
  1 13  1  0  0  0  0
  2 13  1  0  0  0  0
  2 15  1  0  0  0  0
 11  3  1  6  0  0  0
 20  3  1  6  0  0  0
  4 17  1  0  0  0  0
  4 19  1  0  0  0  0
  5 20  1  0  0  0  0
  5 24  1  0  0  0  0
 12  6  1  6  0  0  0
  6 56  1  0  0  0  0
 14  7  1  1  0  0  0
  7 57  1  0  0  0  0
 22  8  1  1  0  0  0
  8 64  1  0  0  0  0
 23  9  1  1  0  0  0
  9 65  1  0  0  0  0
 10 14  1  0  0  0  0
 10 17  1  0  0  0  0
 10 30  1  0  0  0  0
 11 12  1  0  0  0  0
 11 15  1  0  0  0  0
 11 31  1  0  0  0  0
 12 16  1  0  0  0  0
 12 32  1  0  0  0  0
 13 16  1  0  0  0  0
 13 33  1  0  0  0  0
 14 18  1  0  0  0  0
 14 34  1  0  0  0  0
 15 26  1  1  0  0  0
 15 35  1  0  0  0  0
 16 36  1  0  0  0  0
 16 37  1  0  0  0  0
 17 27  1  6  0  0  0
 17 38  1  0  0  0  0
 18 19  1  0  0  0  0
 18 39  1  0  0  0  0
 18 40  1  0  0  0  0
 19 25  1  6  0  0  0
 19 41  1  0  0  0  0
 20 21  1  0  0  0  0
 20 42  1  0  0  0  0
 21 22  1  0  0  0  0
 21 43  1  0  0  0  0
 21 44  1  0  0  0  0
 22 23  1  0  0  0  0
 22 45  1  0  0  0  0
 23 24  1  0  0  0  0
 23 46  1  0  0  0  0
 24 28  1  6  0  0  0
 24 47  1  0  0  0  0
 25 29  1  0  0  0  0
 25 48  1  0  0  0  0
 25 49  1  0  0  0  0
 26 50  1  0  0  0  0
 26 51  1  0  0  0  0
 26 52  1  0  0  0  0
 27 53  1  0  0  0  0
 27 54  1  0  0  0  0
 27 55  1  0  0  0  0
 28 58  1  0  0  0  0
 28 59  1  0  0  0  0
 28 60  1  0  0  0  0
 29 61  1  0  0  0  0
 29 62  1  0  0  0  0
 29 63  1  0  0  0  0
M  END
> <PUBCHEM_COMPOUND_CID>
68316992

> <PUBCHEM_COMPOUND_CANONICALIZED>
1

> <PUBCHEM_CACTVS_COMPLEXITY>
520

> <PUBCHEM_CACTVS_HBOND_ACCEPTOR>
9

> <PUBCHEM_CACTVS_HBOND_DONOR>
4

> <PUBCHEM_CACTVS_ROTATABLE_BOND>
5

> <PUBCHEM_CACTVS_SUBSKEYS>
AAADcfB4PAAAAAAAAAAAAAAAAAAAAAAAAAAkSJAAAAAAAAAAAAAAGgAACAAACBSwgAMCCAAABgAAAAAAAAAAAAAAAAAAAAAAAAAREAIAAAAiQAAFAAAHAAHA4KwAAAAAAAAAAAAAAAAAAAAAAAAAAAAAAA==

> <PUBCHEM_IUPAC_OPENEYE_NAME>
(2R,3S,4S,6S)-6-[(2R,3S,4S)-6-[(2R,3S,4S,6S)-6-ethyl-4-hydroxy-2-methyl-tetrahydropyran-3-yl]oxy-4-hydroxy-2-methyl-tetrahydropyran-3-yl]oxy-2-methyl-tetrahydropyran-3,4-diol

> <PUBCHEM_IUPAC_CAS_NAME>
(2R,3S,4S,6S)-6-[[(2R,3S,4S)-6-[[(2R,3S,4S,6S)-6-ethyl-4-hydroxy-2-methyl-3-oxanyl]oxy]-4-hydroxy-2-methyl-3-oxanyl]oxy]-2-methyloxane-3,4-diol

> <PUBCHEM_IUPAC_NAME_MARKUP>
(2<I>R</I>,3<I>S</I>,4<I>S</I>,6<I>S</I>)-6-[(2<I>R</I>,3<I>S</I>,4<I>S</I>)-6-[(2<I>R</I>,3<I>S</I>,4<I>S</I>,6<I>S</I>)-6-ethyl-4-hydroxy-2-methyloxan-3-yl]oxy-4-hydroxy-2-methyloxan-3-yl]oxy-2-methyloxane-3,4-diol

> <PUBCHEM_IUPAC_NAME>
(2R,3S,4S,6S)-6-[(2R,3S,4S)-6-[(2R,3S,4S,6S)-6-ethyl-4-hydroxy-2-methyloxan-3-yl]oxy-4-hydroxy-2-methyloxan-3-yl]oxy-2-methyloxane-3,4-diol

> <PUBCHEM_IUPAC_SYSTEMATIC_NAME>
(2R,3S,4S,6S)-6-[(2R,3S,4S)-6-[(2R,3S,4S,6S)-6-ethyl-2-methyl-4-oxidanyl-oxan-3-yl]oxy-2-methyl-4-oxidanyl-oxan-3-yl]oxy-2-methyl-oxane-3,4-diol

> <PUBCHEM_IUPAC_TRADITIONAL_NAME>
(2R,3S,4S,6S)-6-[(2R,3S,4S)-6-[(2R,3S,4S,6S)-6-ethyl-4-hydroxy-2-methyl-tetrahydropyran-3-yl]oxy-4-hydroxy-2-methyl-tetrahydropyran-3-yl]oxy-2-methyl-tetrahydropyran-3,4-diol

> <PUBCHEM_IUPAC_INCHI>
InChI=1S/C20H36O9/c1-5-12-6-14(22)19(10(3)25-12)29-17-8-15(23)20(11(4)27-17)28-16-7-13(21)18(24)9(2)26-16/h9-24H,5-8H2,1-4H3/t9-,10-,11-,12+,13+,14+,15+,16+,17?,18-,19-,20-/m1/s1

> <PUBCHEM_IUPAC_INCHIKEY>
PWETYRSLCWBSEQ-PRHRCBJDSA-N

> <PUBCHEM_XLOGP3_AA>
0.1

> <PUBCHEM_EXACT_MASS>
420.23593272

> <PUBCHEM_MOLECULAR_FORMULA>
C20H36O9

> <PUBCHEM_MOLECULAR_WEIGHT>
420.5

> <PUBCHEM_OPENEYE_CAN_SMILES>
CCC1CC(C(C(O1)C)OC2CC(C(C(O2)C)OC3CC(C(C(O3)C)O)O)O)O

> <PUBCHEM_OPENEYE_ISO_SMILES>
CC[C@H]1C[C@@H]([C@@H]([C@H](O1)C)OC2C[C@@H]([C@@H]([C@H](O2)C)O[C@H]3C[C@@H]([C@@H]([C@H](O3)C)O)O)O)O

> <PUBCHEM_CACTVS_TPSA>
127

> <PUBCHEM_MONOISOTOPIC_WEIGHT>
420.23593272

> <PUBCHEM_TOTAL_CHARGE>
0

> <PUBCHEM_HEAVY_ATOM_COUNT>
29

> <PUBCHEM_ATOM_DEF_STEREO_COUNT>
11

> <PUBCHEM_ATOM_UDEF_STEREO_COUNT>
1

> <PUBCHEM_BOND_DEF_STEREO_COUNT>
0

> <PUBCHEM_BOND_UDEF_STEREO_COUNT>
0

> <PUBCHEM_ISOTOPIC_ATOM_COUNT>
0

> <PUBCHEM_COMPONENT_COUNT>
1

> <PUBCHEM_CACTVS_TAUTO_COUNT>
-1

> <PUBCHEM_COORDINATE_TYPE>
1
5
255

> <PUBCHEM_BONDANNOTATIONS>
10  1  5
13  1  3
15  26  5
17  27  6
19  25  6
24  28  6
11  3  6
20  3  6
12  6  6
14  7  5
22  8  5
23  9  5

$$$$
