 
  -OEChem-10192104052D

 73 75  0     1  0  0  0  0  0999 V2000
    8.0622   -0.5000    0.0000 O   0  0  0  0  0  0  0  0  0  0  0  0
    6.3301   -0.5000    0.0000 O   0  0  0  0  0  0  0  0  0  0  0  0
    9.7942    0.5000    0.0000 O   0  0  0  0  0  0  0  0  0  0  0  0
    8.9282    2.0000    0.0000 O   0  0  0  0  0  0  0  0  0  0  0  0
    6.3301    0.5000    0.0000 O   0  0  0  0  0  0  0  0  0  0  0  0
    4.5981   -2.5000    0.0000 O   0  0  0  0  0  0  0  0  0  0  0  0
    8.0622   -2.5000    0.0000 O   0  0  0  0  0  0  0  0  0  0  0  0
    6.3301    2.5000    0.0000 O   0  0  0  0  0  0  0  0  0  0  0  0
    6.3301   -3.5000    0.0000 O   0  0  0  0  0  0  0  0  0  0  0  0
   12.3923    1.0000    0.0000 O   0  0  0  0  0  0  0  0  0  0  0  0
    9.7942    2.5000    0.0000 O   0  0  0  0  0  0  0  0  0  0  0  0
    3.7320   -1.0000    0.0000 O   0  0  0  0  0  0  0  0  0  0  0  0
   11.5263   -0.5000    0.0000 O   0  0  0  0  0  0  0  0  0  0  0  0
   11.5263    3.5000    0.0000 O   0  0  0  0  0  0  0  0  0  0  0  0
    5.4641   -4.0000    0.0000 O   0  0  0  0  0  0  0  0  0  0  0  0
    7.1962    4.0000    0.0000 O   0  0  0  0  0  0  0  0  0  0  0  0
    2.8660    0.5000    0.0000 O   0  0  0  0  0  0  0  0  0  0  0  0
    8.0622    0.5000    0.0000 C   0  0  2  0  0  0  0  0  0  0  0  0
    7.1962    1.0000    0.0000 C   0  0  2  0  0  0  0  0  0  0  0  0
    7.1962   -1.0000    0.0000 C   0  0  2  0  0  0  0  0  0  0  0  0
    8.9282    1.0000    0.0000 C   0  0  2  0  0  0  0  0  0  0  0  0
    7.1962   -2.0000    0.0000 C   0  0  1  0  0  0  0  0  0  0  0  0
    6.3301   -2.5000    0.0000 C   0  0  2  0  0  0  0  0  0  0  0  0
    5.4641   -2.0000    0.0000 C   0  0  1  0  0  0  0  0  0  0  0  0
    5.4641   -1.0000    0.0000 C   0  0  1  0  0  0  0  0  0  0  0  0
    7.1962    2.0000    0.0000 C   0  0  1  0  0  0  0  0  0  0  0  0
   10.6603    1.0000    0.0000 C   0  0  2  0  0  0  0  0  0  0  0  0
    8.0622    2.5000    0.0000 C   0  0  0  0  0  0  0  0  0  0  0  0
   10.6603    2.0000    0.0000 C   0  0  2  0  0  0  0  0  0  0  0  0
   11.5263    0.5000    0.0000 C   0  0  3  0  0  0  0  0  0  0  0  0
   11.5263    2.5000    0.0000 C   0  0  1  0  0  0  0  0  0  0  0  0
    4.5981   -0.5000    0.0000 C   0  0  0  0  0  0  0  0  0  0  0  0
   12.3923    2.0000    0.0000 C   0  0  0  0  0  0  0  0  0  0  0  0
    4.5981   -3.5000    0.0000 C   0  0  0  0  0  0  0  0  0  0  0  0
    6.3301    3.5000    0.0000 C   0  0  0  0  0  0  0  0  0  0  0  0
    2.8660   -0.5000    0.0000 C   0  0  0  0  0  0  0  0  0  0  0  0
    3.7320   -4.0000    0.0000 C   0  0  0  0  0  0  0  0  0  0  0  0
    5.4641    4.0000    0.0000 C   0  0  0  0  0  0  0  0  0  0  0  0
    2.0000   -1.0000    0.0000 C   0  0  0  0  0  0  0  0  0  0  0  0
    7.5252    0.1900    0.0000 H   0  0  0  0  0  0  0  0  0  0  0  0
    6.6592    1.3100    0.0000 H   0  0  0  0  0  0  0  0  0  0  0  0
    7.7331   -1.3100    0.0000 H   0  0  0  0  0  0  0  0  0  0  0  0
    8.9282    0.3800    0.0000 H   0  0  0  0  0  0  0  0  0  0  0  0
    7.1962   -2.6200    0.0000 H   0  0  0  0  0  0  0  0  0  0  0  0
    5.7932   -2.8100    0.0000 H   0  0  0  0  0  0  0  0  0  0  0  0
    5.4641   -2.6200    0.0000 H   0  0  0  0  0  0  0  0  0  0  0  0
    5.4641   -0.3800    0.0000 H   0  0  0  0  0  0  0  0  0  0  0  0
    7.1962    2.6200    0.0000 H   0  0  0  0  0  0  0  0  0  0  0  0
   10.1233    1.3100    0.0000 H   0  0  0  0  0  0  0  0  0  0  0  0
    8.4607    2.9750    0.0000 H   0  0  0  0  0  0  0  0  0  0  0  0
    7.6636    2.9750    0.0000 H   0  0  0  0  0  0  0  0  0  0  0  0
   10.6603    2.6200    0.0000 H   0  0  0  0  0  0  0  0  0  0  0  0
   10.9893    0.1900    0.0000 H   0  0  0  0  0  0  0  0  0  0  0  0
   12.0632    2.8100    0.0000 H   0  0  0  0  0  0  0  0  0  0  0  0
    4.9966   -0.0251    0.0000 H   0  0  0  0  0  0  0  0  0  0  0  0
    4.1996   -0.0251    0.0000 H   0  0  0  0  0  0  0  0  0  0  0  0
   13.0029    1.8923    0.0000 H   0  0  0  0  0  0  0  0  0  0  0  0
   12.6044    2.5826    0.0000 H   0  0  0  0  0  0  0  0  0  0  0  0
    5.7932    0.8100    0.0000 H   0  0  0  0  0  0  0  0  0  0  0  0
    8.5991   -2.1900    0.0000 H   0  0  0  0  0  0  0  0  0  0  0  0
    6.8671   -3.8100    0.0000 H   0  0  0  0  0  0  0  0  0  0  0  0
    9.7942    3.1200    0.0000 H   0  0  0  0  0  0  0  0  0  0  0  0
   12.0632   -0.8100    0.0000 H   0  0  0  0  0  0  0  0  0  0  0  0
   12.0632    3.8100    0.0000 H   0  0  0  0  0  0  0  0  0  0  0  0
    3.4220   -3.4631    0.0000 H   0  0  0  0  0  0  0  0  0  0  0  0
    3.1951   -4.3100    0.0000 H   0  0  0  0  0  0  0  0  0  0  0  0
    4.0420   -4.5369    0.0000 H   0  0  0  0  0  0  0  0  0  0  0  0
    5.7741    4.5369    0.0000 H   0  0  0  0  0  0  0  0  0  0  0  0
    4.9272    4.3100    0.0000 H   0  0  0  0  0  0  0  0  0  0  0  0
    5.1541    3.4631    0.0000 H   0  0  0  0  0  0  0  0  0  0  0  0
    1.6900   -0.4631    0.0000 H   0  0  0  0  0  0  0  0  0  0  0  0
    1.4631   -1.3100    0.0000 H   0  0  0  0  0  0  0  0  0  0  0  0
    2.3100   -1.5369    0.0000 H   0  0  0  0  0  0  0  0  0  0  0  0
 18  1  1  6  0  0  0
 20  1  1  1  0  0  0
  2 20  1  0  0  0  0
  2 25  1  0  0  0  0
 21  3  1  1  0  0  0
 27  3  1  6  0  0  0
  4 21  1  0  0  0  0
  4 28  1  0  0  0  0
 19  5  1  1  0  0  0
  5 59  1  0  0  0  0
 24  6  1  6  0  0  0
  6 34  1  0  0  0  0
 22  7  1  6  0  0  0
  7 60  1  0  0  0  0
 26  8  1  6  0  0  0
  8 35  1  0  0  0  0
 23  9  1  1  0  0  0
  9 61  1  0  0  0  0
 10 30  1  0  0  0  0
 10 33  1  0  0  0  0
 29 11  1  1  0  0  0
 11 62  1  0  0  0  0
 12 32  1  0  0  0  0
 12 36  1  0  0  0  0
 13 30  1  0  0  0  0
 13 63  1  0  0  0  0
 31 14  1  6  0  0  0
 14 64  1  0  0  0  0
 15 34  2  0  0  0  0
 16 35  2  0  0  0  0
 17 36  2  0  0  0  0
 18 19  1  0  0  0  0
 18 21  1  0  0  0  0
 18 40  1  0  0  0  0
 19 26  1  0  0  0  0
 19 41  1  0  0  0  0
 20 22  1  0  0  0  0
 20 42  1  0  0  0  0
 21 43  1  0  0  0  0
 22 23  1  0  0  0  0
 22 44  1  0  0  0  0
 23 24  1  0  0  0  0
 23 45  1  0  0  0  0
 24 25  1  0  0  0  0
 24 46  1  0  0  0  0
 25 32  1  1  0  0  0
 25 47  1  0  0  0  0
 26 28  1  0  0  0  0
 26 48  1  0  0  0  0
 27 29  1  0  0  0  0
 27 30  1  0  0  0  0
 27 49  1  0  0  0  0
 28 50  1  0  0  0  0
 28 51  1  0  0  0  0
 29 31  1  0  0  0  0
 29 52  1  0  0  0  0
 30 53  1  0  0  0  0
 31 33  1  0  0  0  0
 31 54  1  0  0  0  0
 32 55  1  0  0  0  0
 32 56  1  0  0  0  0
 33 57  1  0  0  0  0
 33 58  1  0  0  0  0
 34 37  1  0  0  0  0
 35 38  1  0  0  0  0
 36 39  1  0  0  0  0
 37 65  1  0  0  0  0
 37 66  1  0  0  0  0
 37 67  1  0  0  0  0
 38 68  1  0  0  0  0
 38 69  1  0  0  0  0
 38 70  1  0  0  0  0
 39 71  1  0  0  0  0
 39 72  1  0  0  0  0
 39 73  1  0  0  0  0
M  END
> <PUBCHEM_COMPOUND_CID>
91852659

> <PUBCHEM_COMPOUND_CANONICALIZED>
1

> <PUBCHEM_CACTVS_COMPLEXITY>
854

> <PUBCHEM_CACTVS_HBOND_ACCEPTOR>
17

> <PUBCHEM_CACTVS_HBOND_DONOR>
6

> <PUBCHEM_CACTVS_ROTATABLE_BOND>
11

> <PUBCHEM_CACTVS_SUBSKEYS>
AAADcfB4PgAAAAAAAAAAAAAAAAAAAAAAAAAkSJAAAAAAAAAAAAAAGgAACAAACBSwgAMCCAAABgAIAACQCAAAAAAAAAAAAAAAAAAREAIAAAAiQAAFAAAHAAHAYAwAAAAAAAAAAAAAAAAAAAAAAAAAAAAAAA==

> <PUBCHEM_IUPAC_OPENEYE_NAME>
[(2R,3S,4R,5R,6S)-3-acetoxy-6-[(2S,3R,4S,5R)-5-acetoxy-4-hydroxy-2-[(3R,4S,5R)-2,4,5-trihydroxytetrahydropyran-3-yl]oxy-tetrahydropyran-3-yl]oxy-4,5-dihydroxy-tetrahydropyran-2-yl]methyl acetate

> <PUBCHEM_IUPAC_CAS_NAME>
acetic acid [(2R,3S,4R,5R,6S)-3-acetyloxy-6-[[(2S,3R,4S,5R)-5-acetyloxy-4-hydroxy-2-[[(3R,4S,5R)-2,4,5-trihydroxy-3-oxanyl]oxy]-3-oxanyl]oxy]-4,5-dihydroxy-2-oxanyl]methyl ester

> <PUBCHEM_IUPAC_NAME_MARKUP>
[(2<I>R</I>,3<I>S</I>,4<I>R</I>,5<I>R</I>,6<I>S</I>)-3-acetyloxy-6-[(2<I>S</I>,3<I>R</I>,4<I>S</I>,5<I>R</I>)-5-acetyloxy-4-hydroxy-2-[(3<I>R</I>,4<I>S</I>,5<I>R</I>)-2,4,5-trihydroxyoxan-3-yl]oxyoxan-3-yl]oxy-4,5-dihydroxyoxan-2-yl]methyl acetate

> <PUBCHEM_IUPAC_NAME>
[(2R,3S,4R,5R,6S)-3-acetyloxy-6-[(2S,3R,4S,5R)-5-acetyloxy-4-hydroxy-2-[(3R,4S,5R)-2,4,5-trihydroxyoxan-3-yl]oxyoxan-3-yl]oxy-4,5-dihydroxyoxan-2-yl]methyl acetate

> <PUBCHEM_IUPAC_SYSTEMATIC_NAME>
[(2R,3S,4R,5R,6S)-3-acetyloxy-6-[(2S,3R,4S,5R)-5-acetyloxy-4-oxidanyl-2-[(3R,4S,5R)-2,4,5-tris(oxidanyl)oxan-3-yl]oxy-oxan-3-yl]oxy-4,5-bis(oxidanyl)oxan-2-yl]methyl ethanoate

> <PUBCHEM_IUPAC_TRADITIONAL_NAME>
acetic acid [(2R,3S,4R,5R,6S)-3-acetoxy-6-[(2S,3R,4S,5R)-5-acetoxy-4-hydroxy-2-[(3R,4S,5R)-2,4,5-trihydroxytetrahydropyran-3-yl]oxy-tetrahydropyran-3-yl]oxy-4,5-dihydroxy-tetrahydropyran-2-yl]methyl ester

> <PUBCHEM_IUPAC_INCHI>
InChI=1S/C22H34O17/c1-7(23)32-6-12-17(36-9(3)25)15(29)16(30)21(37-12)39-19-14(28)11(35-8(2)24)5-34-22(19)38-18-13(27)10(26)4-33-20(18)31/h10-22,26-31H,4-6H2,1-3H3/t10-,11-,12-,13+,14+,15-,16-,17-,18-,19-,20?,21+,22+/m1/s1

> <PUBCHEM_IUPAC_INCHIKEY>
UTURKHVVSRXYLE-XXVAXHDASA-N

> <PUBCHEM_XLOGP3_AA>
-4.5

> <PUBCHEM_EXACT_MASS>
570.17959961

> <PUBCHEM_MOLECULAR_FORMULA>
C22H34O17

> <PUBCHEM_MOLECULAR_WEIGHT>
570.5

> <PUBCHEM_OPENEYE_CAN_SMILES>
CC(=O)OCC1C(C(C(C(O1)OC2C(C(COC2OC3C(C(COC3O)O)O)OC(=O)C)O)O)O)OC(=O)C

> <PUBCHEM_OPENEYE_ISO_SMILES>
CC(=O)OC[C@@H]1[C@H]([C@@H]([C@H]([C@@H](O1)O[C@@H]2[C@H]([C@@H](CO[C@H]2O[C@@H]3[C@H]([C@@H](COC3O)O)O)OC(=O)C)O)O)O)OC(=O)C

> <PUBCHEM_CACTVS_TPSA>
246

> <PUBCHEM_MONOISOTOPIC_WEIGHT>
570.17959961

> <PUBCHEM_TOTAL_CHARGE>
0

> <PUBCHEM_HEAVY_ATOM_COUNT>
39

> <PUBCHEM_ATOM_DEF_STEREO_COUNT>
12

> <PUBCHEM_ATOM_UDEF_STEREO_COUNT>
1

> <PUBCHEM_BOND_DEF_STEREO_COUNT>
0

> <PUBCHEM_BOND_UDEF_STEREO_COUNT>
0

> <PUBCHEM_ISOTOPIC_ATOM_COUNT>
0

> <PUBCHEM_COMPONENT_COUNT>
1

> <PUBCHEM_CACTVS_TAUTO_COUNT>
-1

> <PUBCHEM_COORDINATE_TYPE>
1
5
255

> <PUBCHEM_BONDANNOTATIONS>
18  1  6
20  1  5
29  11  5
30  13  3
31  14  6
25  32  5
21  3  5
27  3  6
19  5  5
24  6  6
22  7  6
26  8  6
23  9  5

$$$$
