 
  -OEChem-10192104352D

 26 27  0     0  0  0  0  0  0999 V2000
    2.8660   -1.5675    0.0000 O   0  0  0  0  0  0  0  0  0  0  0  0
    2.8660    1.8966    0.0000 O   0  0  0  0  0  0  0  0  0  0  0  0
    5.8660   -1.5675    0.0000 O   0  0  0  0  0  0  0  0  0  0  0  0
    4.3660    1.0306    0.0000 O   0  0  0  0  0  0  0  0  0  0  0  0
    4.3660   -2.4335    0.0000 O   0  0  0  0  0  0  0  0  0  0  0  0
    2.8660    0.1645    0.0000 C   0  0  0  0  0  0  0  0  0  0  0  0
    4.3660   -0.7015    0.0000 C   0  0  0  0  0  0  0  0  0  0  0  0
    3.3660   -0.7015    0.0000 C   0  0  0  0  0  0  0  0  0  0  0  0
    2.0000   -0.3355    0.0000 C   0  0  0  0  0  0  0  0  0  0  0  0
    2.0000    0.6645    0.0000 C   0  0  0  0  0  0  0  0  0  0  0  0
    5.2320   -0.2015    0.0000 C   0  0  0  0  0  0  0  0  0  0  0  0
    4.3660    0.2985    0.0000 C   0  0  0  0  0  0  0  0  0  0  0  0
    3.3660    1.0306    0.0000 C   0  0  0  0  0  0  0  0  0  0  0  0
    4.8660   -1.5675    0.0000 C   0  0  0  0  0  0  0  0  0  0  0  0
    3.6760   -1.2384    0.0000 H   0  0  0  0  0  0  0  0  0  0  0  0
    1.3894   -0.4431    0.0000 H   0  0  0  0  0  0  0  0  0  0  0  0
    2.2120   -0.9181    0.0000 H   0  0  0  0  0  0  0  0  0  0  0  0
    2.2120    1.2472    0.0000 H   0  0  0  0  0  0  0  0  0  0  0  0
    1.3894    0.7722    0.0000 H   0  0  0  0  0  0  0  0  0  0  0  0
    5.6306   -0.6764    0.0000 H   0  0  0  0  0  0  0  0  0  0  0  0
    5.6306    0.2735    0.0000 H   0  0  0  0  0  0  0  0  0  0  0  0
    4.5781    0.8811    0.0000 H   0  0  0  0  0  0  0  0  0  0  0  0
    3.7554    0.4062    0.0000 H   0  0  0  0  0  0  0  0  0  0  0  0
    2.2460   -1.5675    0.0000 H   0  0  0  0  0  0  0  0  0  0  0  0
    3.1760    2.4335    0.0000 H   0  0  0  0  0  0  0  0  0  0  0  0
    6.1760   -2.1044    0.0000 H   0  0  0  0  0  0  0  0  0  0  0  0
  1  8  1  0  0  0  0
  1 24  1  0  0  0  0
  2 13  1  0  0  0  0
  2 25  1  0  0  0  0
  3 14  1  0  0  0  0
  3 26  1  0  0  0  0
  4 13  2  0  0  0  0
  5 14  2  0  0  0  0
  6  8  1  0  0  0  0
  6  9  1  0  0  0  0
  6 10  1  0  0  0  0
  6 13  1  0  0  0  0
  7  8  1  0  0  0  0
  7 11  1  0  0  0  0
  7 12  1  0  0  0  0
  7 14  1  0  0  0  0
  8 15  1  0  0  0  0
  9 10  1  0  0  0  0
  9 16  1  0  0  0  0
  9 17  1  0  0  0  0
 10 18  1  0  0  0  0
 10 19  1  0  0  0  0
 11 12  1  0  0  0  0
 11 20  1  0  0  0  0
 11 21  1  0  0  0  0
 12 22  1  0  0  0  0
 12 23  1  0  0  0  0
M  END
> <PUBCHEM_COMPOUND_CID>
105452655

> <PUBCHEM_COMPOUND_CANONICALIZED>
1

> <PUBCHEM_CACTVS_COMPLEXITY>
270

> <PUBCHEM_CACTVS_HBOND_ACCEPTOR>
5

> <PUBCHEM_CACTVS_HBOND_DONOR>
3

> <PUBCHEM_CACTVS_ROTATABLE_BOND>
4

> <PUBCHEM_CACTVS_SUBSKEYS>
AAADccBwOAAAAAAAAAAAAAAAGDAAAAAAAAAAAAAAAAAAAAAAAAAAGgAACAAADhSggAIACAAAAgAIAACQCAAAAAAAAAAAAAEAAAAAEBYAAAAAQAAFIAAAAAGI7gAPAAAAAAAAAAAAAAAAAAAAAAAAAAAAAA==

> <PUBCHEM_IUPAC_OPENEYE_NAME>
1-[(1-carboxycyclopropyl)-hydroxy-methyl]cyclopropanecarboxylic acid

> <PUBCHEM_IUPAC_CAS_NAME>
1-[(1-carboxycyclopropyl)-hydroxymethyl]-1-cyclopropanecarboxylic acid

> <PUBCHEM_IUPAC_NAME_MARKUP>
1-[(1-carboxycyclopropyl)-hydroxymethyl]cyclopropane-1-carboxylic acid

> <PUBCHEM_IUPAC_NAME>
1-[(1-carboxycyclopropyl)-hydroxymethyl]cyclopropane-1-carboxylic acid

> <PUBCHEM_IUPAC_SYSTEMATIC_NAME>
1-[(1-carboxycyclopropyl)-oxidanyl-methyl]cyclopropane-1-carboxylic acid

> <PUBCHEM_IUPAC_TRADITIONAL_NAME>
1-[(1-carboxycyclopropyl)-hydroxy-methyl]cyclopropanecarboxylic acid

> <PUBCHEM_IUPAC_INCHI>
InChI=1S/C9H12O5/c10-5(8(1-2-8)6(11)12)9(3-4-9)7(13)14/h5,10H,1-4H2,(H,11,12)(H,13,14)

> <PUBCHEM_IUPAC_INCHIKEY>
ZSYRTZFZISJXGE-UHFFFAOYSA-N

> <PUBCHEM_XLOGP3_AA>
-0.7

> <PUBCHEM_EXACT_MASS>
200.06847348

> <PUBCHEM_MOLECULAR_FORMULA>
C9H12O5

> <PUBCHEM_MOLECULAR_WEIGHT>
200.19

> <PUBCHEM_OPENEYE_CAN_SMILES>
C1CC1(C(C2(CC2)C(=O)O)O)C(=O)O

> <PUBCHEM_OPENEYE_ISO_SMILES>
C1CC1(C(C2(CC2)C(=O)O)O)C(=O)O

> <PUBCHEM_CACTVS_TPSA>
94.8

> <PUBCHEM_MONOISOTOPIC_WEIGHT>
200.06847348

> <PUBCHEM_TOTAL_CHARGE>
0

> <PUBCHEM_HEAVY_ATOM_COUNT>
14

> <PUBCHEM_ATOM_DEF_STEREO_COUNT>
0

> <PUBCHEM_ATOM_UDEF_STEREO_COUNT>
0

> <PUBCHEM_BOND_DEF_STEREO_COUNT>
0

> <PUBCHEM_BOND_UDEF_STEREO_COUNT>
0

> <PUBCHEM_ISOTOPIC_ATOM_COUNT>
0

> <PUBCHEM_COMPONENT_COUNT>
1

> <PUBCHEM_CACTVS_TAUTO_COUNT>
-1

> <PUBCHEM_COORDINATE_TYPE>
1
5
255

$$$$
