 
  -OEChem-10192103422D

 90 92  0     1  0  0  0  0  0999 V2000
    8.0622   -1.1294    0.0000 O   0  0  0  0  0  0  0  0  0  0  0  0
    8.9282    1.3706    0.0000 O   0  0  0  0  0  0  0  0  0  0  0  0
    6.3301   -1.1294    0.0000 O   0  0  0  0  0  0  0  0  0  0  0  0
    6.3301   -0.1294    0.0000 O   0  0  0  0  0  0  0  0  0  0  0  0
    6.3301    1.8706    0.0000 O   0  0  0  0  0  0  0  0  0  0  0  0
    8.0622   -3.1294    0.0000 O   0  0  0  0  0  0  0  0  0  0  0  0
    6.3301   -4.1294    0.0000 O   0  0  0  0  0  0  0  0  0  0  0  0
    4.5981   -3.1294    0.0000 O   0  0  0  0  0  0  0  0  0  0  0  0
   10.6603    0.3706    0.0000 O   0  0  0  0  0  0  0  0  0  0  0  0
    3.7320   -1.6294    0.0000 O   0  0  0  0  0  0  0  0  0  0  0  0
   10.0318    2.2179    0.0000 O   0  0  0  0  0  0  0  0  0  0  0  0
    4.5981   -0.1294    0.0000 O   0  0  0  0  0  0  0  0  0  0  0  0
    6.6309    3.5764    0.0000 O   0  0  0  0  0  0  0  0  0  0  0  0
    7.1962   -4.6294    0.0000 O   0  0  0  0  0  0  0  0  0  0  0  0
    4.5981   -4.1294    0.0000 O   0  0  0  0  0  0  0  0  0  0  0  0
    2.9705   -2.5370    0.0000 O   0  0  0  0  0  0  0  0  0  0  0  0
    9.4303    5.6294    0.0000 O   0  0  0  0  0  0  0  0  0  0  0  0
   11.5263   -1.1294    0.0000 O   0  0  0  0  0  0  0  0  0  0  0  0
    2.0000   -1.6294    0.0000 O   0  0  0  0  0  0  0  0  0  0  0  0
    8.4042    2.8103    0.0000 N   0  0  0  0  0  0  0  0  0  0  0  0
    8.1034    4.5160    0.0000 N   0  0  0  0  0  0  0  0  0  0  0  0
    9.7310    3.9236    0.0000 N   0  0  0  0  0  0  0  0  0  0  0  0
    8.0622   -0.1294    0.0000 C   0  0  1  0  0  0  0  0  0  0  0  0
    7.1962    0.3706    0.0000 C   0  0  1  0  0  0  0  0  0  0  0  0
    7.1962    1.3706    0.0000 C   0  0  2  0  0  0  0  0  0  0  0  0
    8.9282    0.3706    0.0000 C   0  0  1  0  0  0  0  0  0  0  0  0
    8.0622    1.8706    0.0000 C   0  0  1  0  0  0  0  0  0  0  0  0
    7.1962   -1.6294    0.0000 C   0  0  2  0  0  0  0  0  0  0  0  0
    7.1962   -2.6294    0.0000 C   0  0  1  0  0  0  0  0  0  0  0  0
    6.3301   -3.1294    0.0000 C   0  0  2  0  0  0  0  0  0  0  0  0
    5.4641   -2.6294    0.0000 C   0  0  2  0  0  0  0  0  0  0  0  0
    5.4641   -1.6294    0.0000 C   0  0  1  0  0  0  0  0  0  0  0  0
    9.7942   -0.1294    0.0000 C   0  0  0  0  0  0  0  0  0  0  0  0
    4.5981   -1.1294    0.0000 C   0  0  0  0  0  0  0  0  0  0  0  0
    7.7614    3.5764    0.0000 C   0  0  0  0  0  0  0  0  0  0  0  0
    9.3890    2.9840    0.0000 C   0  0  0  0  0  0  0  0  0  0  0  0
    5.4641    0.3706    0.0000 C   0  0  0  0  0  0  0  0  0  0  0  0
    5.9881    2.8103    0.0000 C   0  0  0  0  0  0  0  0  0  0  0  0
    8.0622   -4.1294    0.0000 C   0  0  0  0  0  0  0  0  0  0  0  0
    5.4641   -4.6294    0.0000 C   0  0  0  0  0  0  0  0  0  0  0  0
    3.6133   -3.3030    0.0000 C   0  0  0  0  0  0  0  0  0  0  0  0
    9.0882    4.6897    0.0000 C   0  0  0  0  0  0  0  0  0  0  0  0
    5.4641    1.3706    0.0000 C   0  0  0  0  0  0  0  0  0  0  0  0
   11.5263   -0.1294    0.0000 C   0  0  0  0  0  0  0  0  0  0  0  0
    5.0033    2.9840    0.0000 C   0  0  0  0  0  0  0  0  0  0  0  0
    8.9282   -4.6294    0.0000 C   0  0  0  0  0  0  0  0  0  0  0  0
    5.4641   -5.6294    0.0000 C   0  0  0  0  0  0  0  0  0  0  0  0
    2.8660   -1.1294    0.0000 C   0  0  0  0  0  0  0  0  0  0  0  0
    3.2712   -4.2426    0.0000 C   0  0  0  0  0  0  0  0  0  0  0  0
   12.3923    0.3706    0.0000 C   0  0  0  0  0  0  0  0  0  0  0  0
    2.8660   -0.1294    0.0000 C   0  0  0  0  0  0  0  0  0  0  0  0
    7.5252   -0.4394    0.0000 H   0  0  0  0  0  0  0  0  0  0  0  0
    7.7331    0.0606    0.0000 H   0  0  0  0  0  0  0  0  0  0  0  0
    6.6592    1.0606    0.0000 H   0  0  0  0  0  0  0  0  0  0  0  0
    9.4651    0.6806    0.0000 H   0  0  0  0  0  0  0  0  0  0  0  0
    7.5872    2.2691    0.0000 H   0  0  0  0  0  0  0  0  0  0  0  0
    7.7331   -1.9394    0.0000 H   0  0  0  0  0  0  0  0  0  0  0  0
    7.1962   -3.2494    0.0000 H   0  0  0  0  0  0  0  0  0  0  0  0
    5.7932   -3.4394    0.0000 H   0  0  0  0  0  0  0  0  0  0  0  0
    5.4641   -3.2494    0.0000 H   0  0  0  0  0  0  0  0  0  0  0  0
    5.4641   -1.0094    0.0000 H   0  0  0  0  0  0  0  0  0  0  0  0
    9.3957   -0.6043    0.0000 H   0  0  0  0  0  0  0  0  0  0  0  0
   10.1928   -0.6043    0.0000 H   0  0  0  0  0  0  0  0  0  0  0  0
    4.9966   -0.6544    0.0000 H   0  0  0  0  0  0  0  0  0  0  0  0
    4.1996   -0.6544    0.0000 H   0  0  0  0  0  0  0  0  0  0  0  0
    7.2245    3.8864    0.0000 H   0  0  0  0  0  0  0  0  0  0  0  0
    7.3629    3.1014    0.0000 H   0  0  0  0  0  0  0  0  0  0  0  0
    7.7049    4.9910    0.0000 H   0  0  0  0  0  0  0  0  0  0  0  0
   10.3416    4.0313    0.0000 H   0  0  0  0  0  0  0  0  0  0  0  0
    6.0841    1.3706    0.0000 H   0  0  0  0  0  0  0  0  0  0  0  0
    5.4641    1.9906    0.0000 H   0  0  0  0  0  0  0  0  0  0  0  0
    4.8441    1.3706    0.0000 H   0  0  0  0  0  0  0  0  0  0  0  0
    5.1110    3.5945    0.0000 H   0  0  0  0  0  0  0  0  0  0  0  0
    4.3927    3.0916    0.0000 H   0  0  0  0  0  0  0  0  0  0  0  0
    4.8956    2.3734    0.0000 H   0  0  0  0  0  0  0  0  0  0  0  0
    8.6182   -5.1663    0.0000 H   0  0  0  0  0  0  0  0  0  0  0  0
    9.4651   -4.9394    0.0000 H   0  0  0  0  0  0  0  0  0  0  0  0
    9.2382   -4.0925    0.0000 H   0  0  0  0  0  0  0  0  0  0  0  0
    4.8441   -5.6294    0.0000 H   0  0  0  0  0  0  0  0  0  0  0  0
    5.4641   -6.2494    0.0000 H   0  0  0  0  0  0  0  0  0  0  0  0
    6.0841   -5.6294    0.0000 H   0  0  0  0  0  0  0  0  0  0  0  0
    2.6886   -4.0306    0.0000 H   0  0  0  0  0  0  0  0  0  0  0  0
    3.0591   -4.8252    0.0000 H   0  0  0  0  0  0  0  0  0  0  0  0
    3.8538   -4.4548    0.0000 H   0  0  0  0  0  0  0  0  0  0  0  0
   12.7023   -0.1663    0.0000 H   0  0  0  0  0  0  0  0  0  0  0  0
   12.9292    0.6806    0.0000 H   0  0  0  0  0  0  0  0  0  0  0  0
   12.0823    0.9076    0.0000 H   0  0  0  0  0  0  0  0  0  0  0  0
    3.4860   -0.1294    0.0000 H   0  0  0  0  0  0  0  0  0  0  0  0
    2.8660    0.4906    0.0000 H   0  0  0  0  0  0  0  0  0  0  0  0
    2.2460   -0.1294    0.0000 H   0  0  0  0  0  0  0  0  0  0  0  0
 23  1  1  1  0  0  0
 28  1  1  1  0  0  0
  2 26  1  0  0  0  0
  2 27  1  0  0  0  0
  3 28  1  0  0  0  0
  3 32  1  0  0  0  0
 24  4  1  6  0  0  0
  4 37  1  0  0  0  0
 25  5  1  1  0  0  0
  5 38  1  0  0  0  0
 29  6  1  6  0  0  0
  6 39  1  0  0  0  0
 30  7  1  1  0  0  0
  7 40  1  0  0  0  0
 31  8  1  1  0  0  0
  8 41  1  0  0  0  0
  9 33  1  0  0  0  0
  9 44  1  0  0  0  0
 10 34  1  0  0  0  0
 10 48  1  0  0  0  0
 11 36  2  0  0  0  0
 12 37  2  0  0  0  0
 13 38  2  0  0  0  0
 14 39  2  0  0  0  0
 15 40  2  0  0  0  0
 16 41  2  0  0  0  0
 17 42  2  0  0  0  0
 18 44  2  0  0  0  0
 19 48  2  0  0  0  0
 27 20  1  6  0  0  0
 20 35  1  0  0  0  0
 20 36  1  0  0  0  0
 21 35  1  0  0  0  0
 21 42  1  0  0  0  0
 21 68  1  0  0  0  0
 22 36  1  0  0  0  0
 22 42  1  0  0  0  0
 22 69  1  0  0  0  0
 23 24  1  0  0  0  0
 23 26  1  0  0  0  0
 23 52  1  0  0  0  0
 24 25  1  0  0  0  0
 24 53  1  0  0  0  0
 25 27  1  0  0  0  0
 25 54  1  0  0  0  0
 26 33  1  6  0  0  0
 26 55  1  0  0  0  0
 27 56  1  0  0  0  0
 28 29  1  0  0  0  0
 28 57  1  0  0  0  0
 29 30  1  0  0  0  0
 29 58  1  0  0  0  0
 30 31  1  0  0  0  0
 30 59  1  0  0  0  0
 31 32  1  0  0  0  0
 31 60  1  0  0  0  0
 32 34  1  1  0  0  0
 32 61  1  0  0  0  0
 33 62  1  0  0  0  0
 33 63  1  0  0  0  0
 34 64  1  0  0  0  0
 34 65  1  0  0  0  0
 35 66  1  0  0  0  0
 35 67  1  0  0  0  0
 37 43  1  0  0  0  0
 38 45  1  0  0  0  0
 39 46  1  0  0  0  0
 40 47  1  0  0  0  0
 41 49  1  0  0  0  0
 43 70  1  0  0  0  0
 43 71  1  0  0  0  0
 43 72  1  0  0  0  0
 44 50  1  0  0  0  0
 45 73  1  0  0  0  0
 45 74  1  0  0  0  0
 45 75  1  0  0  0  0
 46 76  1  0  0  0  0
 46 77  1  0  0  0  0
 46 78  1  0  0  0  0
 47 79  1  0  0  0  0
 47 80  1  0  0  0  0
 47 81  1  0  0  0  0
 48 51  1  0  0  0  0
 49 82  1  0  0  0  0
 49 83  1  0  0  0  0
 49 84  1  0  0  0  0
 50 85  1  0  0  0  0
 50 86  1  0  0  0  0
 50 87  1  0  0  0  0
 51 88  1  0  0  0  0
 51 89  1  0  0  0  0
 51 90  1  0  0  0  0
M  END
> <PUBCHEM_COMPOUND_CID>
44596939

> <PUBCHEM_COMPOUND_CANONICALIZED>
1

> <PUBCHEM_CACTVS_COMPLEXITY>
1390

> <PUBCHEM_CACTVS_HBOND_ACCEPTOR>
19

> <PUBCHEM_CACTVS_HBOND_DONOR>
2

> <PUBCHEM_CACTVS_ROTATABLE_BOND>
19

> <PUBCHEM_CACTVS_SUBSKEYS>
AAADcfB7PgAAAAAAAAAAAAAAAAAAAAAAAAAsSJAAAAAAAAAAAAAAHgAQAAAACBTxgAcDCAPABAAIAACQGAAAAAAAAAAAAIAIAACTAAIAgAAvAAAPByIWAAHwcA4AAAAAAAAAAAAAAAAAAAAAAAAAAAAAAA==

> <PUBCHEM_IUPAC_OPENEYE_NAME>
[(2R,3R,4S,5R,6R)-4,5-diacetoxy-6-(2,4-dioxo-1,3,5-triazinan-1-yl)-3-[(2S,3R,4S,5S,6R)-3,4,5-triacetoxy-6-(acetoxymethyl)tetrahydropyran-2-yl]oxy-tetrahydropyran-2-yl]methyl acetate

> <PUBCHEM_IUPAC_CAS_NAME>
acetic acid [(2R,3R,4S,5R,6R)-4,5-diacetyloxy-6-(2,4-dioxo-1,3,5-triazinan-1-yl)-3-[[(2S,3R,4S,5S,6R)-3,4,5-triacetyloxy-6-(acetyloxymethyl)-2-oxanyl]oxy]-2-oxanyl]methyl ester

> <PUBCHEM_IUPAC_NAME_MARKUP>
[(2<I>R</I>,3<I>R</I>,4<I>S</I>,5<I>R</I>,6<I>R</I>)-4,5-diacetyloxy-6-(2,4-dioxo-1,3,5-triazinan-1-yl)-3-[(2<I>S</I>,3<I>R</I>,4<I>S</I>,5<I>S</I>,6<I>R</I>)-3,4,5-triacetyloxy-6-(acetyloxymethyl)oxan-2-yl]oxyoxan-2-yl]methyl acetate

> <PUBCHEM_IUPAC_NAME>
[(2R,3R,4S,5R,6R)-4,5-diacetyloxy-6-(2,4-dioxo-1,3,5-triazinan-1-yl)-3-[(2S,3R,4S,5S,6R)-3,4,5-triacetyloxy-6-(acetyloxymethyl)oxan-2-yl]oxyoxan-2-yl]methyl acetate

> <PUBCHEM_IUPAC_SYSTEMATIC_NAME>
[(2R,3R,4S,5R,6R)-4,5-diacetyloxy-6-[2,4-bis(oxidanylidene)-1,3,5-triazinan-1-yl]-3-[(2S,3R,4S,5S,6R)-3,4,5-triacetyloxy-6-(acetyloxymethyl)oxan-2-yl]oxy-oxan-2-yl]methyl ethanoate

> <PUBCHEM_IUPAC_TRADITIONAL_NAME>
acetic acid [(2R,3R,4S,5R,6R)-4,5-diacetoxy-6-(2,4-diketo-1,3,5-triazinan-1-yl)-3-[(2S,3R,4S,5S,6R)-3,4,5-triacetoxy-6-(acetoxymethyl)tetrahydropyran-2-yl]oxy-tetrahydropyran-2-yl]methyl ester

> <PUBCHEM_IUPAC_INCHI>
InChI=1S/C29H39N3O19/c1-11(33)42-8-18-21(22(45-14(4)36)24(47-16(6)38)26(49-18)32-10-30-28(40)31-29(32)41)51-27-25(48-17(7)39)23(46-15(5)37)20(44-13(3)35)19(50-27)9-43-12(2)34/h18-27H,8-10H2,1-7H3,(H2,30,31,40,41)/t18-,19-,20+,21-,22+,23+,24-,25-,26-,27+/m1/s1

> <PUBCHEM_IUPAC_INCHIKEY>
CWDJIZVKMYAQDW-FDXOKOSPSA-N

> <PUBCHEM_XLOGP3_AA>
-1.8

> <PUBCHEM_EXACT_MASS>
733.21777602

> <PUBCHEM_MOLECULAR_FORMULA>
C29H39N3O19

> <PUBCHEM_MOLECULAR_WEIGHT>
733.6

> <PUBCHEM_OPENEYE_CAN_SMILES>
CC(=O)OCC1C(C(C(C(O1)N2CNC(=O)NC2=O)OC(=O)C)OC(=O)C)OC3C(C(C(C(O3)COC(=O)C)OC(=O)C)OC(=O)C)OC(=O)C

> <PUBCHEM_OPENEYE_ISO_SMILES>
CC(=O)OC[C@@H]1[C@H]([C@@H]([C@H]([C@@H](O1)N2CNC(=O)NC2=O)OC(=O)C)OC(=O)C)O[C@H]3[C@@H]([C@H]([C@H]([C@H](O3)COC(=O)C)OC(=O)C)OC(=O)C)OC(=O)C

> <PUBCHEM_CACTVS_TPSA>
273

> <PUBCHEM_MONOISOTOPIC_WEIGHT>
733.21777602

> <PUBCHEM_TOTAL_CHARGE>
0

> <PUBCHEM_HEAVY_ATOM_COUNT>
51

> <PUBCHEM_ATOM_DEF_STEREO_COUNT>
10

> <PUBCHEM_ATOM_UDEF_STEREO_COUNT>
0

> <PUBCHEM_BOND_DEF_STEREO_COUNT>
0

> <PUBCHEM_BOND_UDEF_STEREO_COUNT>
0

> <PUBCHEM_ISOTOPIC_ATOM_COUNT>
0

> <PUBCHEM_COMPONENT_COUNT>
1

> <PUBCHEM_CACTVS_TAUTO_COUNT>
-1

> <PUBCHEM_COORDINATE_TYPE>
1
5
255

> <PUBCHEM_BONDANNOTATIONS>
23  1  5
28  1  5
27  20  6
26  33  6
32  34  5
24  4  6
25  5  5
29  6  6
30  7  5
31  8  5

$$$$
