 
  -OEChem-10192104452D

 66 68  0     1  0  0  0  0  0999 V2000
    7.7331    1.2306    0.0000 O   0  0  0  0  0  0  0  0  0  0  0  0
    6.7331    2.2306    0.0000 O   0  0  0  0  0  0  0  0  0  0  0  0
    6.0010    1.2306    0.0000 O   0  0  0  0  0  0  0  0  0  0  0  0
    4.2690   -0.7694    0.0000 O   0  0  0  0  0  0  0  0  0  0  0  0
    5.1350   -2.2694    0.0000 O   0  0  0  0  0  0  0  0  0  0  0  0
    6.0010   -1.7694    0.0000 O   0  0  0  0  0  0  0  0  0  0  0  0
    8.9932    3.4906    0.0000 O   0  0  0  0  0  0  0  0  0  0  0  0
    7.7331   -0.7694    0.0000 O   0  0  0  0  0  0  0  0  0  0  0  0
    7.2331    4.7694    0.0000 O   0  0  0  0  0  0  0  0  0  0  0  0
    2.5369   -1.7694    0.0000 O   0  0  0  0  0  0  0  0  0  0  0  0
    9.4273    2.5907    0.0000 O   0  0  0  0  0  0  0  0  0  0  0  0
    2.5369   -3.7694    0.0000 O   0  0  0  0  0  0  0  0  0  0  0  0
    4.2690   -4.7694    0.0000 O   0  0  0  0  0  0  0  0  0  0  0  0
    4.2690    2.2306    0.0000 O   0  0  0  0  0  0  0  0  0  0  0  0
    5.2651    4.4688    0.0000 O   0  0  0  0  0  0  0  0  0  0  0  0
    6.0010   -4.7694    0.0000 O   0  0  0  0  0  0  0  0  0  0  0  0
    7.7331    2.2306    0.0000 C   0  0  2  0  0  0  0  0  0  0  0  0
    5.1350   -0.2694    0.0000 C   0  0  1  0  0  0  0  0  0  0  0  0
    6.0010   -0.7694    0.0000 C   0  0  1  0  0  0  0  0  0  0  0  0
    8.0421    3.1816    0.0000 C   0  0  2  0  0  0  0  0  0  0  0  0
    6.8671    0.7306    0.0000 C   0  0  1  0  0  0  0  0  0  0  0  0
    6.8671   -0.2694    0.0000 C   0  0  2  0  0  0  0  0  0  0  0  0
    5.1350    0.7306    0.0000 C   0  0  1  0  0  0  0  0  0  0  0  0
    7.2331    3.7694    0.0000 C   0  0  1  0  0  0  0  0  0  0  0  0
    6.4241    3.1816    0.0000 C   0  0  1  0  0  0  0  0  0  0  0  0
    4.2690   -1.7694    0.0000 C   0  0  2  0  0  0  0  0  0  0  0  0
    3.4030   -2.2694    0.0000 C   0  0  1  0  0  0  0  0  0  0  0  0
    8.6841    1.9216    0.0000 C   0  0  0  0  0  0  0  0  0  0  0  0
    3.4030   -3.2694    0.0000 C   0  0  2  0  0  0  0  0  0  0  0  0
    4.2690   -3.7694    0.0000 C   0  0  2  0  0  0  0  0  0  0  0  0
    5.1350   -3.2694    0.0000 C   0  0  1  0  0  0  0  0  0  0  0  0
    4.2690    1.2306    0.0000 C   0  0  0  0  0  0  0  0  0  0  0  0
    5.4730    3.4906    0.0000 C   0  0  0  0  0  0  0  0  0  0  0  0
    6.0010   -3.7694    0.0000 C   0  0  0  0  0  0  0  0  0  0  0  0
    5.1350   -0.8894    0.0000 H   0  0  0  0  0  0  0  0  0  0  0  0
    5.4641   -1.0794    0.0000 H   0  0  0  0  0  0  0  0  0  0  0  0
    8.4805    2.7432    0.0000 H   0  0  0  0  0  0  0  0  0  0  0  0
    7.4040    0.4206    0.0000 H   0  0  0  0  0  0  0  0  0  0  0  0
    6.8671   -0.8894    0.0000 H   0  0  0  0  0  0  0  0  0  0  0  0
    5.1350    1.3506    0.0000 H   0  0  0  0  0  0  0  0  0  0  0  0
    6.6807    4.0509    0.0000 H   0  0  0  0  0  0  0  0  0  0  0  0
    5.9857    2.7432    0.0000 H   0  0  0  0  0  0  0  0  0  0  0  0
    3.7320   -1.4594    0.0000 H   0  0  0  0  0  0  0  0  0  0  0  0
    3.4030   -1.6494    0.0000 H   0  0  0  0  0  0  0  0  0  0  0  0
    8.3931    1.3741    0.0000 H   0  0  0  0  0  0  0  0  0  0  0  0
    9.1727    1.5398    0.0000 H   0  0  0  0  0  0  0  0  0  0  0  0
    3.4030   -3.8894    0.0000 H   0  0  0  0  0  0  0  0  0  0  0  0
    4.8059   -4.0794    0.0000 H   0  0  0  0  0  0  0  0  0  0  0  0
    5.6720   -2.9594    0.0000 H   0  0  0  0  0  0  0  0  0  0  0  0
    3.6584    1.3382    0.0000 H   0  0  0  0  0  0  0  0  0  0  0  0
    4.0569    0.6480    0.0000 H   0  0  0  0  0  0  0  0  0  0  0  0
    4.8534    3.4690    0.0000 H   0  0  0  0  0  0  0  0  0  0  0  0
    5.3867    2.8767    0.0000 H   0  0  0  0  0  0  0  0  0  0  0  0
    6.5380   -2.0794    0.0000 H   0  0  0  0  0  0  0  0  0  0  0  0
    9.1221    4.0971    0.0000 H   0  0  0  0  0  0  0  0  0  0  0  0
    8.2700   -0.4594    0.0000 H   0  0  0  0  0  0  0  0  0  0  0  0
    7.7700    5.0794    0.0000 H   0  0  0  0  0  0  0  0  0  0  0  0
    6.6116   -3.8771    0.0000 H   0  0  0  0  0  0  0  0  0  0  0  0
    6.2131   -3.1868    0.0000 H   0  0  0  0  0  0  0  0  0  0  0  0
    2.0000   -2.0794    0.0000 H   0  0  0  0  0  0  0  0  0  0  0  0
   10.0169    2.3991    0.0000 H   0  0  0  0  0  0  0  0  0  0  0  0
    2.5369   -4.3894    0.0000 H   0  0  0  0  0  0  0  0  0  0  0  0
    3.7320   -5.0794    0.0000 H   0  0  0  0  0  0  0  0  0  0  0  0
    3.7320    2.5406    0.0000 H   0  0  0  0  0  0  0  0  0  0  0  0
    4.6754    4.6604    0.0000 H   0  0  0  0  0  0  0  0  0  0  0  0
    6.5380   -5.0794    0.0000 H   0  0  0  0  0  0  0  0  0  0  0  0
 17  1  1  6  0  0  0
 21  1  1  6  0  0  0
  2 17  1  0  0  0  0
  2 25  1  0  0  0  0
  3 21  1  0  0  0  0
  3 23  1  0  0  0  0
 18  4  1  6  0  0  0
 26  4  1  6  0  0  0
  5 26  1  0  0  0  0
  5 31  1  0  0  0  0
 19  6  1  1  0  0  0
  6 54  1  0  0  0  0
 20  7  1  6  0  0  0
  7 55  1  0  0  0  0
 22  8  1  6  0  0  0
  8 56  1  0  0  0  0
 24  9  1  1  0  0  0
  9 57  1  0  0  0  0
 27 10  1  1  0  0  0
 10 60  1  0  0  0  0
 11 28  1  0  0  0  0
 11 61  1  0  0  0  0
 29 12  1  6  0  0  0
 12 62  1  0  0  0  0
 30 13  1  6  0  0  0
 13 63  1  0  0  0  0
 14 32  1  0  0  0  0
 14 64  1  0  0  0  0
 15 33  1  0  0  0  0
 15 65  1  0  0  0  0
 16 34  1  0  0  0  0
 16 66  1  0  0  0  0
 17 20  1  0  0  0  0
 17 28  1  0  0  0  0
 18 19  1  0  0  0  0
 18 23  1  0  0  0  0
 18 35  1  0  0  0  0
 19 22  1  0  0  0  0
 19 36  1  0  0  0  0
 20 24  1  0  0  0  0
 20 37  1  0  0  0  0
 21 22  1  0  0  0  0
 21 38  1  0  0  0  0
 22 39  1  0  0  0  0
 23 32  1  1  0  0  0
 23 40  1  0  0  0  0
 24 25  1  0  0  0  0
 24 41  1  0  0  0  0
 25 33  1  6  0  0  0
 25 42  1  0  0  0  0
 26 27  1  0  0  0  0
 26 43  1  0  0  0  0
 27 29  1  0  0  0  0
 27 44  1  0  0  0  0
 28 45  1  0  0  0  0
 28 46  1  0  0  0  0
 29 30  1  0  0  0  0
 29 47  1  0  0  0  0
 30 31  1  0  0  0  0
 30 48  1  0  0  0  0
 31 34  1  6  0  0  0
 31 49  1  0  0  0  0
 32 50  1  0  0  0  0
 32 51  1  0  0  0  0
 33 52  1  0  0  0  0
 33 53  1  0  0  0  0
 34 58  1  0  0  0  0
 34 59  1  0  0  0  0
M  END
> <PUBCHEM_COMPOUND_CID>
174626

> <PUBCHEM_COMPOUND_CANONICALIZED>
1

> <PUBCHEM_CACTVS_COMPLEXITY>
655

> <PUBCHEM_CACTVS_HBOND_ACCEPTOR>
16

> <PUBCHEM_CACTVS_HBOND_DONOR>
11

> <PUBCHEM_CACTVS_ROTATABLE_BOND>
8

> <PUBCHEM_CACTVS_SUBSKEYS>
AAADcfB4PgAAAAAAAAAAAAAAAAAAASAAAAAkSAAAAAAAAAAAAAAAGgAACAAACBSwgAMACAAABgAAAAAAAAAAAAAAAAAAAAAAAAAREAIAAAAiQAAFAAAHAAHAYAwAAAAAAAAAAAAAAAAAAAAAAAAAAAAAAA==

> <PUBCHEM_IUPAC_OPENEYE_NAME>
(2S,3R,4S,5R,6R)-2-[(2R,3S,4R,5R,6R)-6-[(2S,3S,4S,5R)-3,4-dihydroxy-2,5-bis(hydroxymethyl)tetrahydrofuran-2-yl]oxy-4,5-dihydroxy-2-(hydroxymethyl)tetrahydropyran-3-yl]oxy-6-(hydroxymethyl)tetrahydropyran-3,4,5-triol

> <PUBCHEM_IUPAC_CAS_NAME>
(2S,3R,4S,5R,6R)-2-[[(2R,3S,4R,5R,6R)-6-[[(2S,3S,4S,5R)-3,4-dihydroxy-2,5-bis(hydroxymethyl)-2-oxolanyl]oxy]-4,5-dihydroxy-2-(hydroxymethyl)-3-oxanyl]oxy]-6-(hydroxymethyl)oxane-3,4,5-triol

> <PUBCHEM_IUPAC_NAME_MARKUP>
(2<I>S</I>,3<I>R</I>,4<I>S</I>,5<I>R</I>,6<I>R</I>)-2-[(2<I>R</I>,3<I>S</I>,4<I>R</I>,5<I>R</I>,6<I>R</I>)-6-[(2<I>S</I>,3<I>S</I>,4<I>S</I>,5<I>R</I>)-3,4-dihydroxy-2,5-bis(hydroxymethyl)oxolan-2-yl]oxy-4,5-dihydroxy-2-(hydroxymethyl)oxan-3-yl]oxy-6-(hydroxymethyl)oxane-3,4,5-triol

> <PUBCHEM_IUPAC_NAME>
(2S,3R,4S,5R,6R)-2-[(2R,3S,4R,5R,6R)-6-[(2S,3S,4S,5R)-3,4-dihydroxy-2,5-bis(hydroxymethyl)oxolan-2-yl]oxy-4,5-dihydroxy-2-(hydroxymethyl)oxan-3-yl]oxy-6-(hydroxymethyl)oxane-3,4,5-triol

> <PUBCHEM_IUPAC_SYSTEMATIC_NAME>
(2S,3R,4S,5R,6R)-2-[(2R,3S,4R,5R,6R)-6-[(2S,3S,4S,5R)-2,5-bis(hydroxymethyl)-3,4-bis(oxidanyl)oxolan-2-yl]oxy-2-(hydroxymethyl)-4,5-bis(oxidanyl)oxan-3-yl]oxy-6-(hydroxymethyl)oxane-3,4,5-triol

> <PUBCHEM_IUPAC_TRADITIONAL_NAME>
(2S,3R,4S,5R,6R)-2-[(2R,3S,4R,5R,6R)-6-[(2S,3S,4S,5R)-3,4-dihydroxy-2,5-dimethylol-tetrahydrofuran-2-yl]oxy-4,5-dihydroxy-2-methylol-tetrahydropyran-3-yl]oxy-6-methylol-tetrahydropyran-3,4,5-triol

> <PUBCHEM_IUPAC_INCHI>
InChI=1S/C18H32O16/c19-1-5-8(23)10(25)12(27)16(30-5)32-14-7(3-21)31-17(13(28)11(14)26)34-18(4-22)15(29)9(24)6(2-20)33-18/h5-17,19-29H,1-4H2/t5-,6-,7-,8+,9-,10+,11-,12-,13-,14-,15+,16+,17-,18+/m1/s1

> <PUBCHEM_IUPAC_INCHIKEY>
FVVCFHXLWDDRHG-UPLOTWCNSA-N

> <PUBCHEM_XLOGP3>
-5.8

> <PUBCHEM_EXACT_MASS>
504.16903493

> <PUBCHEM_MOLECULAR_FORMULA>
C18H32O16

> <PUBCHEM_MOLECULAR_WEIGHT>
504.4

> <PUBCHEM_OPENEYE_CAN_SMILES>
C(C1C(C(C(C(O1)OC2C(OC(C(C2O)O)OC3(C(C(C(O3)CO)O)O)CO)CO)O)O)O)O

> <PUBCHEM_OPENEYE_ISO_SMILES>
C([C@@H]1[C@@H]([C@@H]([C@H]([C@@H](O1)O[C@@H]2[C@H](O[C@@H]([C@@H]([C@H]2O)O)O[C@]3([C@H]([C@@H]([C@H](O3)CO)O)O)CO)CO)O)O)O)O

> <PUBCHEM_CACTVS_TPSA>
269

> <PUBCHEM_MONOISOTOPIC_WEIGHT>
504.16903493

> <PUBCHEM_TOTAL_CHARGE>
0

> <PUBCHEM_HEAVY_ATOM_COUNT>
34

> <PUBCHEM_ATOM_DEF_STEREO_COUNT>
14

> <PUBCHEM_ATOM_UDEF_STEREO_COUNT>
0

> <PUBCHEM_BOND_DEF_STEREO_COUNT>
0

> <PUBCHEM_BOND_UDEF_STEREO_COUNT>
0

> <PUBCHEM_ISOTOPIC_ATOM_COUNT>
0

> <PUBCHEM_COMPONENT_COUNT>
1

> <PUBCHEM_CACTVS_TAUTO_COUNT>
1

> <PUBCHEM_COORDINATE_TYPE>
1
5
255

> <PUBCHEM_BONDANNOTATIONS>
17  1  6
21  1  6
27  10  5
29  12  6
30  13  6
23  32  5
25  33  6
31  34  6
18  4  6
26  4  6
19  6  5
20  7  6
22  8  6
24  9  5

$$$$
