 
  -OEChem-10192103512D

 52 55  0     0  0  0  0  0  0999 V2000
    5.4641   -2.2500    0.0000 P   0  0  0  0  0  0  0  0  0  0  0  0
    5.4641   -3.2500    0.0000 O   0  0  0  0  0  0  0  0  0  0  0  0
    6.4641   -2.2500    0.0000 O   0  0  0  0  0  0  0  0  0  0  0  0
    5.4641   -1.2500    0.0000 O   0  0  0  0  0  0  0  0  0  0  0  0
    4.4641   -2.2500    0.0000 O   0  0  0  0  0  0  0  0  0  0  0  0
    4.5981   -0.7500    0.0000 N   0  0  0  0  0  0  0  0  0  0  0  0
    6.3301    4.2500    0.0000 N   0  0  0  0  0  0  0  0  0  0  0  0
    4.5981    2.2500    0.0000 C   0  0  0  0  0  0  0  0  0  0  0  0
    4.5981    3.2500    0.0000 C   0  0  0  0  0  0  0  0  0  0  0  0
    3.7320    3.7500    0.0000 C   0  0  0  0  0  0  0  0  0  0  0  0
    5.4641    1.7500    0.0000 C   0  0  0  0  0  0  0  0  0  0  0  0
    3.7320    1.7500    0.0000 C   0  0  0  0  0  0  0  0  0  0  0  0
    4.5981    0.2500    0.0000 C   0  0  0  0  0  0  0  0  0  0  0  0
    5.4641    0.7500    0.0000 C   0  0  0  0  0  0  0  0  0  0  0  0
    3.7320    0.7500    0.0000 C   0  0  0  0  0  0  0  0  0  0  0  0
    3.7320    4.7500    0.0000 C   0  0  0  0  0  0  0  0  0  0  0  0
    2.8660    3.2500    0.0000 C   0  0  0  0  0  0  0  0  0  0  0  0
    6.3301   -3.7500    0.0000 C   0  0  0  0  0  0  0  0  0  0  0  0
    6.9641   -1.3840    0.0000 C   0  0  0  0  0  0  0  0  0  0  0  0
    2.8660    5.2500    0.0000 C   0  0  0  0  0  0  0  0  0  0  0  0
    2.0000    3.7500    0.0000 C   0  0  0  0  0  0  0  0  0  0  0  0
    2.0000    4.7500    0.0000 C   0  0  0  0  0  0  0  0  0  0  0  0
    7.1962   -3.2500    0.0000 C   0  0  0  0  0  0  0  0  0  0  0  0
    7.9641   -1.3840    0.0000 C   0  0  0  0  0  0  0  0  0  0  0  0
    6.3301   -4.7500    0.0000 C   0  0  0  0  0  0  0  0  0  0  0  0
    6.4641   -0.5179    0.0000 C   0  0  0  0  0  0  0  0  0  0  0  0
    8.0622   -3.7500    0.0000 C   0  0  0  0  0  0  0  0  0  0  0  0
    8.4641   -0.5179    0.0000 C   0  0  0  0  0  0  0  0  0  0  0  0
    7.1962   -5.2500    0.0000 C   0  0  0  0  0  0  0  0  0  0  0  0
    6.9641    0.3481    0.0000 C   0  0  0  0  0  0  0  0  0  0  0  0
    5.4641    3.7500    0.0000 C   0  0  0  0  0  0  0  0  0  0  0  0
    8.0622   -4.7500    0.0000 C   0  0  0  0  0  0  0  0  0  0  0  0
    7.9641    0.3481    0.0000 C   0  0  0  0  0  0  0  0  0  0  0  0
    6.0010    2.0600    0.0000 H   0  0  0  0  0  0  0  0  0  0  0  0
    3.1951    2.0600    0.0000 H   0  0  0  0  0  0  0  0  0  0  0  0
    6.0010    0.4400    0.0000 H   0  0  0  0  0  0  0  0  0  0  0  0
    3.1951    0.4400    0.0000 H   0  0  0  0  0  0  0  0  0  0  0  0
    4.2690    5.0600    0.0000 H   0  0  0  0  0  0  0  0  0  0  0  0
    2.8660    2.6300    0.0000 H   0  0  0  0  0  0  0  0  0  0  0  0
    2.8660    5.8700    0.0000 H   0  0  0  0  0  0  0  0  0  0  0  0
    1.4631    3.4400    0.0000 H   0  0  0  0  0  0  0  0  0  0  0  0
    1.4631    5.0600    0.0000 H   0  0  0  0  0  0  0  0  0  0  0  0
    7.1962   -2.6300    0.0000 H   0  0  0  0  0  0  0  0  0  0  0  0
    8.2741   -1.9209    0.0000 H   0  0  0  0  0  0  0  0  0  0  0  0
    5.7932   -5.0600    0.0000 H   0  0  0  0  0  0  0  0  0  0  0  0
    5.8441   -0.5179    0.0000 H   0  0  0  0  0  0  0  0  0  0  0  0
    8.5991   -3.4400    0.0000 H   0  0  0  0  0  0  0  0  0  0  0  0
    9.0841   -0.5179    0.0000 H   0  0  0  0  0  0  0  0  0  0  0  0
    7.1962   -5.8700    0.0000 H   0  0  0  0  0  0  0  0  0  0  0  0
    6.6541    0.8850    0.0000 H   0  0  0  0  0  0  0  0  0  0  0  0
    8.5991   -5.0600    0.0000 H   0  0  0  0  0  0  0  0  0  0  0  0
    8.2741    0.8850    0.0000 H   0  0  0  0  0  0  0  0  0  0  0  0
  1  2  1  0  0  0  0
  1  3  1  0  0  0  0
  1  4  1  0  0  0  0
  1  5  2  0  0  0  0
  2 18  1  0  0  0  0
  3 19  1  0  0  0  0
  4  6  1  0  0  0  0
  6 13  2  0  0  0  0
  7 31  3  0  0  0  0
  8  9  2  0  0  0  0
  8 11  1  0  0  0  0
  8 12  1  0  0  0  0
  9 10  1  0  0  0  0
  9 31  1  0  0  0  0
 10 16  2  0  0  0  0
 10 17  1  0  0  0  0
 11 14  2  0  0  0  0
 11 34  1  0  0  0  0
 12 15  2  0  0  0  0
 12 35  1  0  0  0  0
 13 14  1  0  0  0  0
 13 15  1  0  0  0  0
 14 36  1  0  0  0  0
 15 37  1  0  0  0  0
 16 20  1  0  0  0  0
 16 38  1  0  0  0  0
 17 21  2  0  0  0  0
 17 39  1  0  0  0  0
 18 23  2  0  0  0  0
 18 25  1  0  0  0  0
 19 24  2  0  0  0  0
 19 26  1  0  0  0  0
 20 22  2  0  0  0  0
 20 40  1  0  0  0  0
 21 22  1  0  0  0  0
 21 41  1  0  0  0  0
 22 42  1  0  0  0  0
 23 27  1  0  0  0  0
 23 43  1  0  0  0  0
 24 28  1  0  0  0  0
 24 44  1  0  0  0  0
 25 29  2  0  0  0  0
 25 45  1  0  0  0  0
 26 30  2  0  0  0  0
 26 46  1  0  0  0  0
 27 32  2  0  0  0  0
 27 47  1  0  0  0  0
 28 33  2  0  0  0  0
 28 48  1  0  0  0  0
 29 32  1  0  0  0  0
 29 49  1  0  0  0  0
 30 33  1  0  0  0  0
 30 50  1  0  0  0  0
 32 51  1  0  0  0  0
 33 52  1  0  0  0  0
M  END
> <PUBCHEM_COMPOUND_CID>
18398535

> <PUBCHEM_COMPOUND_CANONICALIZED>
1

> <PUBCHEM_CACTVS_COMPLEXITY>
837

> <PUBCHEM_CACTVS_HBOND_ACCEPTOR>
6

> <PUBCHEM_CACTVS_HBOND_DONOR>
0

> <PUBCHEM_CACTVS_ROTATABLE_BOND>
7

> <PUBCHEM_CACTVS_SUBSKEYS>
AAADceB7OAIAAAAAAAAAAAAAAAAAAAAAAAAwYMEAAAAAAAABUAAAHgAEACAADAyBmAAwBoAQARCwRyBiAIAiAAAgIAAIiAAWCJgIpiKAERKAMAAkwBEIiA+AwIAOAAAAAAAAAAAAAAAAAAAAAAAAAAAAAA==

> <PUBCHEM_IUPAC_OPENEYE_NAME>
[[4-[cyano(phenyl)methylene]cyclohexa-2,5-dien-1-ylidene]amino] diphenyl phosphate

> <PUBCHEM_IUPAC_CAS_NAME>
phosphoric acid [[4-[cyano(phenyl)methylidene]-1-cyclohexa-2,5-dienylidene]amino] diphenyl ester

> <PUBCHEM_IUPAC_NAME_MARKUP>
[[4-[cyano(phenyl)methylidene]cyclohexa-2,5-dien-1-ylidene]amino] diphenyl phosphate

> <PUBCHEM_IUPAC_NAME>
[[4-[cyano(phenyl)methylidene]cyclohexa-2,5-dien-1-ylidene]amino] diphenyl phosphate

> <PUBCHEM_IUPAC_SYSTEMATIC_NAME>
[[4-[cyano(phenyl)methylidene]cyclohexa-2,5-dien-1-ylidene]amino] diphenyl phosphate

> <PUBCHEM_IUPAC_TRADITIONAL_NAME>
phosphoric acid [[4-[cyano(phenyl)methylene]cyclohexa-2,5-dien-1-ylidene]amino] diphenyl ester

> <PUBCHEM_IUPAC_INCHI>
InChI=1S/C26H19N2O4P/c27-20-26(21-10-4-1-5-11-21)22-16-18-23(19-17-22)28-32-33(29,30-24-12-6-2-7-13-24)31-25-14-8-3-9-15-25/h1-19H

> <PUBCHEM_IUPAC_INCHIKEY>
NSXQCXHYLSNJIA-UHFFFAOYSA-N

> <PUBCHEM_XLOGP3_AA>
5.9

> <PUBCHEM_EXACT_MASS>
454.10824409

> <PUBCHEM_MOLECULAR_FORMULA>
C26H19N2O4P

> <PUBCHEM_MOLECULAR_WEIGHT>
454.4

> <PUBCHEM_OPENEYE_CAN_SMILES>
C1=CC=C(C=C1)C(=C2C=CC(=NOP(=O)(OC3=CC=CC=C3)OC4=CC=CC=C4)C=C2)C#N

> <PUBCHEM_OPENEYE_ISO_SMILES>
C1=CC=C(C=C1)C(=C2C=CC(=NOP(=O)(OC3=CC=CC=C3)OC4=CC=CC=C4)C=C2)C#N

> <PUBCHEM_CACTVS_TPSA>
80.9

> <PUBCHEM_MONOISOTOPIC_WEIGHT>
454.10824409

> <PUBCHEM_TOTAL_CHARGE>
0

> <PUBCHEM_HEAVY_ATOM_COUNT>
33

> <PUBCHEM_ATOM_DEF_STEREO_COUNT>
0

> <PUBCHEM_ATOM_UDEF_STEREO_COUNT>
0

> <PUBCHEM_BOND_DEF_STEREO_COUNT>
0

> <PUBCHEM_BOND_UDEF_STEREO_COUNT>
0

> <PUBCHEM_ISOTOPIC_ATOM_COUNT>
0

> <PUBCHEM_COMPONENT_COUNT>
1

> <PUBCHEM_CACTVS_TAUTO_COUNT>
-1

> <PUBCHEM_COORDINATE_TYPE>
1
5
255

> <PUBCHEM_BONDANNOTATIONS>
10  16  8
10  17  8
16  20  8
17  21  8
18  23  8
18  25  8
19  24  8
19  26  8
20  22  8
21  22  8
23  27  8
24  28  8
25  29  8
26  30  8
27  32  8
28  33  8
29  32  8
30  33  8

$$$$
