 
  -OEChem-10192104142D

 38 37  0     1  0  0  0  0  0999 V2000
    6.0010   -0.0950    0.0000 P   0  0  0  0  0  0  0  0  0  0  0  0
    9.4651   -0.0950    0.0000 P   0  0  0  0  0  0  0  0  0  0  0  0
    4.2690   -1.0950    0.0000 O   0  0  0  0  0  0  0  0  0  0  0  0
   11.1972   -1.0950    0.0000 O   0  0  0  0  0  0  0  0  0  0  0  0
    7.7331   -1.0950    0.0000 O   0  0  0  0  0  0  0  0  0  0  0  0
    6.0010   -1.0950    0.0000 O   0  0  0  0  0  0  0  0  0  0  0  0
    9.4651   -1.0950    0.0000 O   0  0  0  0  0  0  0  0  0  0  0  0
    2.5369   -0.0950    0.0000 O   0  0  0  0  0  0  0  0  0  0  0  0
   12.9292   -0.0950    0.0000 O   0  0  0  0  0  0  0  0  0  0  0  0
    6.8671    1.4050    0.0000 O   0  0  0  0  0  0  0  0  0  0  0  0
    8.5991    1.4050    0.0000 O   0  0  0  0  0  0  0  0  0  0  0  0
    5.1350    0.4050    0.0000 C   0  0  0  0  0  0  0  0  0  0  0  0
   10.3312    0.4050    0.0000 C   0  0  0  0  0  0  0  0  0  0  0  0
    4.2690   -0.0950    0.0000 C   0  0  3  0  0  0  0  0  0  0  0  0
   11.1972   -0.0950    0.0000 C   0  0  3  0  0  0  0  0  0  0  0  0
    7.7331   -0.0950    0.0000 C   0  0  0  0  0  0  0  0  0  0  0  0
    6.8671    0.4050    0.0000 C   0  0  0  0  0  0  0  0  0  0  0  0
    8.5991    0.4050    0.0000 C   0  0  0  0  0  0  0  0  0  0  0  0
    3.4030    0.4050    0.0000 C   0  0  0  0  0  0  0  0  0  0  0  0
   12.0632    0.4050    0.0000 C   0  0  0  0  0  0  0  0  0  0  0  0
    5.5335    0.8799    0.0000 H   0  0  0  0  0  0  0  0  0  0  0  0
    4.7365    0.8799    0.0000 H   0  0  0  0  0  0  0  0  0  0  0  0
   10.7297    0.8799    0.0000 H   0  0  0  0  0  0  0  0  0  0  0  0
    9.9326    0.8799    0.0000 H   0  0  0  0  0  0  0  0  0  0  0  0
    4.8059   -0.4050    0.0000 H   0  0  0  0  0  0  0  0  0  0  0  0
   10.6603   -0.4050    0.0000 H   0  0  0  0  0  0  0  0  0  0  0  0
    8.2700   -0.4050    0.0000 H   0  0  0  0  0  0  0  0  0  0  0  0
    3.8015    0.8799    0.0000 H   0  0  0  0  0  0  0  0  0  0  0  0
    3.0044    0.8799    0.0000 H   0  0  0  0  0  0  0  0  0  0  0  0
   12.4617    0.8799    0.0000 H   0  0  0  0  0  0  0  0  0  0  0  0
   11.6647    0.8799    0.0000 H   0  0  0  0  0  0  0  0  0  0  0  0
    3.7320   -1.4050    0.0000 H   0  0  0  0  0  0  0  0  0  0  0  0
   11.7341   -1.4050    0.0000 H   0  0  0  0  0  0  0  0  0  0  0  0
    7.1962   -1.4050    0.0000 H   0  0  0  0  0  0  0  0  0  0  0  0
    5.4641   -1.4050    0.0000 H   0  0  0  0  0  0  0  0  0  0  0  0
   10.0021   -1.4050    0.0000 H   0  0  0  0  0  0  0  0  0  0  0  0
    2.0000    0.2150    0.0000 H   0  0  0  0  0  0  0  0  0  0  0  0
   13.4662    0.2150    0.0000 H   0  0  0  0  0  0  0  0  0  0  0  0
  1  6  1  0  0  0  0
  1 12  1  0  0  0  0
  1 17  1  0  0  0  0
  2  7  1  0  0  0  0
  2 13  1  0  0  0  0
  2 18  1  0  0  0  0
  3 14  1  0  0  0  0
  3 32  1  0  0  0  0
  4 15  1  0  0  0  0
  4 33  1  0  0  0  0
  5 16  1  0  0  0  0
  5 34  1  0  0  0  0
  6 35  1  0  0  0  0
  7 36  1  0  0  0  0
  8 19  1  0  0  0  0
  8 37  1  0  0  0  0
  9 20  1  0  0  0  0
  9 38  1  0  0  0  0
 10 17  2  0  0  0  0
 11 18  2  0  0  0  0
 12 14  1  0  0  0  0
 12 21  1  0  0  0  0
 12 22  1  0  0  0  0
 13 15  1  0  0  0  0
 13 23  1  0  0  0  0
 13 24  1  0  0  0  0
 14 19  1  0  0  0  0
 14 25  1  0  0  0  0
 15 20  1  0  0  0  0
 15 26  1  0  0  0  0
 16 17  1  0  0  0  0
 16 18  1  0  0  0  0
 16 27  1  0  0  0  0
 19 28  1  0  0  0  0
 19 29  1  0  0  0  0
 20 30  1  0  0  0  0
 20 31  1  0  0  0  0
M  END
> <PUBCHEM_COMPOUND_CID>
129677307

> <PUBCHEM_COMPOUND_CANONICALIZED>
1

> <PUBCHEM_CACTVS_COMPLEXITY>
297

> <PUBCHEM_CACTVS_HBOND_ACCEPTOR>
9

> <PUBCHEM_CACTVS_HBOND_DONOR>
7

> <PUBCHEM_CACTVS_ROTATABLE_BOND>
10

> <PUBCHEM_CACTVS_SUBSKEYS>
AAADceBwPAMAAAAAAAAAAAAAAAAAAAAAAAAAAAAAAAAAAAAAAAAAGggACCAACBSogAIAAAAAAiAIAAAQAAIAAAAAAAAAAAFAAAABEAAIAAAAQAAAAAABAAAAAAAAAAAAAAAAAAAAAAAAAAAAAAAAAAAAAA==

> <PUBCHEM_IUPAC_OPENEYE_NAME>
2,3-dihydroxypropyl-[3-[2,3-dihydroxypropyl(hydroxy)phosphanyl]-2-hydroxy-3-oxo-propanoyl]phosphinous acid

> <PUBCHEM_IUPAC_CAS_NAME>
2,3-dihydroxypropyl-[3-[2,3-dihydroxypropyl(hydroxy)phosphino]-2-hydroxy-1,3-dioxopropyl]phosphinous acid

> <PUBCHEM_IUPAC_NAME_MARKUP>
2,3-dihydroxypropyl-[3-[2,3-dihydroxypropyl(hydroxy)phosphanyl]-2-hydroxy-3-oxopropanoyl]phosphinous acid

> <PUBCHEM_IUPAC_NAME>
2,3-dihydroxypropyl-[3-[2,3-dihydroxypropyl(hydroxy)phosphanyl]-2-hydroxy-3-oxopropanoyl]phosphinous acid

> <PUBCHEM_IUPAC_SYSTEMATIC_NAME>
2,3-bis(oxidanyl)propyl-[3-[2,3-bis(oxidanyl)propyl-oxidanyl-phosphanyl]-2-oxidanyl-3-oxidanylidene-propanoyl]phosphinous acid

> <PUBCHEM_IUPAC_TRADITIONAL_NAME>
glyceryl-[3-[glyceryl(hydroxy)phosphino]-2-hydroxy-3-keto-propanoyl]phosphinous acid

> <PUBCHEM_IUPAC_INCHI>
InChI=1S/C9H18O9P2/c10-1-5(12)3-19(17)8(15)7(14)9(16)20(18)4-6(13)2-11/h5-7,10-14,17-18H,1-4H2

> <PUBCHEM_IUPAC_INCHIKEY>
BIPBGUCZKQULMR-UHFFFAOYSA-N

> <PUBCHEM_XLOGP3_AA>
-4.8

> <PUBCHEM_EXACT_MASS>
332.04260614

> <PUBCHEM_MOLECULAR_FORMULA>
C9H18O9P2

> <PUBCHEM_MOLECULAR_WEIGHT>
332.18

> <PUBCHEM_OPENEYE_CAN_SMILES>
C(C(CP(C(=O)C(C(=O)P(CC(CO)O)O)O)O)O)O

> <PUBCHEM_OPENEYE_ISO_SMILES>
C(C(CP(C(=O)C(C(=O)P(CC(CO)O)O)O)O)O)O

> <PUBCHEM_CACTVS_TPSA>
176

> <PUBCHEM_MONOISOTOPIC_WEIGHT>
332.04260614

> <PUBCHEM_TOTAL_CHARGE>
0

> <PUBCHEM_HEAVY_ATOM_COUNT>
20

> <PUBCHEM_ATOM_DEF_STEREO_COUNT>
0

> <PUBCHEM_ATOM_UDEF_STEREO_COUNT>
4

> <PUBCHEM_BOND_DEF_STEREO_COUNT>
0

> <PUBCHEM_BOND_UDEF_STEREO_COUNT>
0

> <PUBCHEM_ISOTOPIC_ATOM_COUNT>
0

> <PUBCHEM_COMPONENT_COUNT>
1

> <PUBCHEM_CACTVS_TAUTO_COUNT>
-1

> <PUBCHEM_COORDINATE_TYPE>
1
5
255

> <PUBCHEM_BONDANNOTATIONS>
1  6  3
2  7  3
14  3  3
15  4  3

$$$$
