 
  -OEChem-10192104082D

 75 77  0     1  0  0  0  0  0999 V2000
    6.0010   -0.3450    0.0000 O   0  0  0  0  0  0  0  0  0  0  0  0
    7.7331   -1.3450    0.0000 O   0  0  0  0  0  0  0  0  0  0  0  0
    6.8671    1.1550    0.0000 O   0  0  0  0  0  0  0  0  0  0  0  0
    4.2690    1.6550    0.0000 O   0  0  0  0  0  0  0  0  0  0  0  0
    9.4651   -1.3450    0.0000 O   0  0  0  0  0  0  0  0  0  0  0  0
    9.4651   -0.3450    0.0000 O   0  0  0  0  0  0  0  0  0  0  0  0
    9.4651    1.6550    0.0000 O   0  0  0  0  0  0  0  0  0  0  0  0
    6.0010    1.6550    0.0000 O   0  0  0  0  0  0  0  0  0  0  0  0
    4.2690   -1.3450    0.0000 O   0  0  0  0  0  0  0  0  0  0  0  0
    2.5369   -0.3450    0.0000 O   0  0  0  0  0  0  0  0  0  0  0  0
    7.7331   -3.3450    0.0000 O   0  0  0  0  0  0  0  0  0  0  0  0
    9.4651   -4.3450    0.0000 O   0  0  0  0  0  0  0  0  0  0  0  0
   11.1972   -3.3450    0.0000 O   0  0  0  0  0  0  0  0  0  0  0  0
    8.5991    3.1550    0.0000 O   0  0  0  0  0  0  0  0  0  0  0  0
    2.5369    2.6550    0.0000 O   0  0  0  0  0  0  0  0  0  0  0  0
   12.0632   -1.8450    0.0000 O   0  0  0  0  0  0  0  0  0  0  0  0
    4.2690    2.6550    0.0000 O   0  0  0  0  0  0  0  0  0  0  0  0
    4.2690    4.6550    0.0000 O   0  0  0  0  0  0  0  0  0  0  0  0
    7.7331   -0.3450    0.0000 C   0  0  1  0  0  0  0  0  0  0  0  0
    6.8671    0.1550    0.0000 C   0  0  2  0  0  0  0  0  0  0  0  0
    8.5991    0.1550    0.0000 C   0  0  2  0  0  0  0  0  0  0  0  0
    5.1350    0.1550    0.0000 C   0  0  2  0  0  0  0  0  0  0  0  0
    8.5991    1.1550    0.0000 C   0  0  2  0  0  0  0  0  0  0  0  0
    7.7331    1.6550    0.0000 C   0  0  1  0  0  0  0  0  0  0  0  0
    4.2690   -0.3450    0.0000 C   0  0  2  0  0  0  0  0  0  0  0  0
    8.5991   -1.8450    0.0000 C   0  0  2  0  0  0  0  0  0  0  0  0
    3.4030    0.1550    0.0000 C   0  0  2  0  0  0  0  0  0  0  0  0
    5.1350    1.1550    0.0000 C   0  0  1  0  0  0  0  0  0  0  0  0
    8.5991   -2.8450    0.0000 C   0  0  1  0  0  0  0  0  0  0  0  0
    3.4030    1.1550    0.0000 C   0  0  1  0  0  0  0  0  0  0  0  0
    9.4651   -3.3450    0.0000 C   0  0  2  0  0  0  0  0  0  0  0  0
   10.3312   -2.8450    0.0000 C   0  0  2  0  0  0  0  0  0  0  0  0
   10.3312   -1.8450    0.0000 C   0  0  1  0  0  0  0  0  0  0  0  0
    7.7331    2.6550    0.0000 C   0  0  0  0  0  0  0  0  0  0  0  0
    2.5369    1.6550    0.0000 C   0  0  0  0  0  0  0  0  0  0  0  0
   11.1972   -1.3450    0.0000 C   0  0  0  0  0  0  0  0  0  0  0  0
    6.0010    2.6550    0.0000 C   0  0  0  0  0  0  0  0  0  0  0  0
    5.1350    3.1550    0.0000 C   0  0  1  0  0  0  0  0  0  0  0  0
    5.1350    4.1550    0.0000 C   0  0  0  0  0  0  0  0  0  0  0  0
    8.2700   -0.6550    0.0000 H   0  0  0  0  0  0  0  0  0  0  0  0
    6.8671   -0.4650    0.0000 H   0  0  0  0  0  0  0  0  0  0  0  0
    9.1360    0.4650    0.0000 H   0  0  0  0  0  0  0  0  0  0  0  0
    5.1350   -0.4650    0.0000 H   0  0  0  0  0  0  0  0  0  0  0  0
    8.5991    1.7750    0.0000 H   0  0  0  0  0  0  0  0  0  0  0  0
    7.1962    1.9650    0.0000 H   0  0  0  0  0  0  0  0  0  0  0  0
    3.7320   -0.6550    0.0000 H   0  0  0  0  0  0  0  0  0  0  0  0
    8.0622   -2.1550    0.0000 H   0  0  0  0  0  0  0  0  0  0  0  0
    3.4030   -0.4650    0.0000 H   0  0  0  0  0  0  0  0  0  0  0  0
    5.1350    1.7750    0.0000 H   0  0  0  0  0  0  0  0  0  0  0  0
    8.5991   -3.4650    0.0000 H   0  0  0  0  0  0  0  0  0  0  0  0
    3.4030    1.7750    0.0000 H   0  0  0  0  0  0  0  0  0  0  0  0
    8.9282   -3.6550    0.0000 H   0  0  0  0  0  0  0  0  0  0  0  0
   10.3312   -3.4650    0.0000 H   0  0  0  0  0  0  0  0  0  0  0  0
   10.3312   -1.2250    0.0000 H   0  0  0  0  0  0  0  0  0  0  0  0
    7.5210    3.2376    0.0000 H   0  0  0  0  0  0  0  0  0  0  0  0
    7.1225    2.5473    0.0000 H   0  0  0  0  0  0  0  0  0  0  0  0
    1.9264    1.7627    0.0000 H   0  0  0  0  0  0  0  0  0  0  0  0
    2.3249    1.0724    0.0000 H   0  0  0  0  0  0  0  0  0  0  0  0
   10.0021   -0.0350    0.0000 H   0  0  0  0  0  0  0  0  0  0  0  0
   11.5957   -0.8701    0.0000 H   0  0  0  0  0  0  0  0  0  0  0  0
   10.7987   -0.8701    0.0000 H   0  0  0  0  0  0  0  0  0  0  0  0
   10.0021    1.3450    0.0000 H   0  0  0  0  0  0  0  0  0  0  0  0
    3.7320   -1.6550    0.0000 H   0  0  0  0  0  0  0  0  0  0  0  0
    2.0000   -0.0350    0.0000 H   0  0  0  0  0  0  0  0  0  0  0  0
    7.7331   -3.9650    0.0000 H   0  0  0  0  0  0  0  0  0  0  0  0
   10.0021   -4.6550    0.0000 H   0  0  0  0  0  0  0  0  0  0  0  0
   11.1972   -3.9650    0.0000 H   0  0  0  0  0  0  0  0  0  0  0  0
    6.6116    2.5473    0.0000 H   0  0  0  0  0  0  0  0  0  0  0  0
    6.2131    3.2376    0.0000 H   0  0  0  0  0  0  0  0  0  0  0  0
    8.5991    3.7750    0.0000 H   0  0  0  0  0  0  0  0  0  0  0  0
    2.0000    2.9650    0.0000 H   0  0  0  0  0  0  0  0  0  0  0  0
    5.1350    2.5350    0.0000 H   0  0  0  0  0  0  0  0  0  0  0  0
   12.6002   -1.5350    0.0000 H   0  0  0  0  0  0  0  0  0  0  0  0
    5.6720    4.4650    0.0000 H   0  0  0  0  0  0  0  0  0  0  0  0
    3.7320    2.9650    0.0000 H   0  0  0  0  0  0  0  0  0  0  0  0
 20  1  1  6  0  0  0
 22  1  1  6  0  0  0
 19  2  1  1  0  0  0
 26  2  1  6  0  0  0
  3 20  1  0  0  0  0
  3 24  1  0  0  0  0
  4 28  1  0  0  0  0
  4 30  1  0  0  0  0
  5 26  1  0  0  0  0
  5 33  1  0  0  0  0
 21  6  1  6  0  0  0
  6 59  1  0  0  0  0
 23  7  1  6  0  0  0
  7 62  1  0  0  0  0
 28  8  1  1  0  0  0
  8 37  1  0  0  0  0
 25  9  1  1  0  0  0
  9 63  1  0  0  0  0
 27 10  1  1  0  0  0
 10 64  1  0  0  0  0
 29 11  1  1  0  0  0
 11 65  1  0  0  0  0
 31 12  1  6  0  0  0
 12 66  1  0  0  0  0
 32 13  1  6  0  0  0
 13 67  1  0  0  0  0
 14 34  1  0  0  0  0
 14 70  1  0  0  0  0
 15 35  1  0  0  0  0
 15 71  1  0  0  0  0
 16 36  1  0  0  0  0
 16 73  1  0  0  0  0
 38 17  1  6  0  0  0
 17 75  1  0  0  0  0
 18 39  2  0  0  0  0
 19 20  1  0  0  0  0
 19 21  1  0  0  0  0
 19 40  1  0  0  0  0
 20 41  1  0  0  0  0
 21 23  1  0  0  0  0
 21 42  1  0  0  0  0
 22 25  1  0  0  0  0
 22 28  1  0  0  0  0
 22 43  1  0  0  0  0
 23 24  1  0  0  0  0
 23 44  1  0  0  0  0
 24 34  1  6  0  0  0
 24 45  1  0  0  0  0
 25 27  1  0  0  0  0
 25 46  1  0  0  0  0
 26 29  1  0  0  0  0
 26 47  1  0  0  0  0
 27 30  1  0  0  0  0
 27 48  1  0  0  0  0
 28 49  1  0  0  0  0
 29 31  1  0  0  0  0
 29 50  1  0  0  0  0
 30 35  1  1  0  0  0
 30 51  1  0  0  0  0
 31 32  1  0  0  0  0
 31 52  1  0  0  0  0
 32 33  1  0  0  0  0
 32 53  1  0  0  0  0
 33 36  1  6  0  0  0
 33 54  1  0  0  0  0
 34 55  1  0  0  0  0
 34 56  1  0  0  0  0
 35 57  1  0  0  0  0
 35 58  1  0  0  0  0
 36 60  1  0  0  0  0
 36 61  1  0  0  0  0
 37 38  1  0  0  0  0
 37 68  1  0  0  0  0
 37 69  1  0  0  0  0
 38 39  1  0  0  0  0
 38 72  1  0  0  0  0
 39 74  1  0  0  0  0
M  END
> <PUBCHEM_COMPOUND_CID>
91855676

> <PUBCHEM_COMPOUND_CANONICALIZED>
1

> <PUBCHEM_CACTVS_COMPLEXITY>
760

> <PUBCHEM_CACTVS_HBOND_ACCEPTOR>
18

> <PUBCHEM_CACTVS_HBOND_DONOR>
11

> <PUBCHEM_CACTVS_ROTATABLE_BOND>
11

> <PUBCHEM_CACTVS_SUBSKEYS>
AAADcfB4PgAAAAAAAAAAAAAAAAAAAAAAAAAkSJAAAAAAAAAAAAAAGgAACAAACBSwgAMACAAABgAIAAgQgAIAAAAAAAAAAAFAAAAREAYAAAAiQAAFIAAHAAHAYAwAAAAAAAAAAAAAAAAAAAAAAAAAAAAAAA==

> <PUBCHEM_IUPAC_OPENEYE_NAME>
(2S)-3-[(2R,3R,4S,5R,6R)-3-[(2S,3R,4S,5R,6R)-4,5-dihydroxy-6-(hydroxymethyl)-3-[(2S,3R,4S,5R,6R)-3,4,5-trihydroxy-6-(hydroxymethyl)tetrahydropyran-2-yl]oxy-tetrahydropyran-2-yl]oxy-4,5-dihydroxy-6-(hydroxymethyl)tetrahydropyran-2-yl]oxy-2-hydroxy-propanal

> <PUBCHEM_IUPAC_CAS_NAME>
(2S)-3-[[(2R,3R,4S,5R,6R)-3-[[(2S,3R,4S,5R,6R)-4,5-dihydroxy-6-(hydroxymethyl)-3-[[(2S,3R,4S,5R,6R)-3,4,5-trihydroxy-6-(hydroxymethyl)-2-oxanyl]oxy]-2-oxanyl]oxy]-4,5-dihydroxy-6-(hydroxymethyl)-2-oxanyl]oxy]-2-hydroxypropanal

> <PUBCHEM_IUPAC_NAME_MARKUP>
(2<I>S</I>)-3-[(2<I>R</I>,3<I>R</I>,4<I>S</I>,5<I>R</I>,6<I>R</I>)-3-[(2<I>S</I>,3<I>R</I>,4<I>S</I>,5<I>R</I>,6<I>R</I>)-4,5-dihydroxy-6-(hydroxymethyl)-3-[(2<I>S</I>,3<I>R</I>,4<I>S</I>,5<I>R</I>,6<I>R</I>)-3,4,5-trihydroxy-6-(hydroxymethyl)oxan-2-yl]oxyoxan-2-yl]oxy-4,5-dihydroxy-6-(hydroxymethyl)oxan-2-yl]oxy-2-hydroxypropanal

> <PUBCHEM_IUPAC_NAME>
(2S)-3-[(2R,3R,4S,5R,6R)-3-[(2S,3R,4S,5R,6R)-4,5-dihydroxy-6-(hydroxymethyl)-3-[(2S,3R,4S,5R,6R)-3,4,5-trihydroxy-6-(hydroxymethyl)oxan-2-yl]oxyoxan-2-yl]oxy-4,5-dihydroxy-6-(hydroxymethyl)oxan-2-yl]oxy-2-hydroxypropanal

> <PUBCHEM_IUPAC_SYSTEMATIC_NAME>
(2S)-3-[(2R,3R,4S,5R,6R)-6-(hydroxymethyl)-3-[(2S,3R,4S,5R,6R)-6-(hydroxymethyl)-3-[(2S,3R,4S,5R,6R)-6-(hydroxymethyl)-3,4,5-tris(oxidanyl)oxan-2-yl]oxy-4,5-bis(oxidanyl)oxan-2-yl]oxy-4,5-bis(oxidanyl)oxan-2-yl]oxy-2-oxidanyl-propanal

> <PUBCHEM_IUPAC_TRADITIONAL_NAME>
(2S)-3-[(2R,3R,4S,5R,6R)-3-[(2S,3R,4S,5R,6R)-4,5-dihydroxy-6-methylol-3-[(2S,3R,4S,5R,6R)-3,4,5-trihydroxy-6-methylol-tetrahydropyran-2-yl]oxy-tetrahydropyran-2-yl]oxy-4,5-dihydroxy-6-methylol-tetrahydropyran-2-yl]oxy-2-hydroxy-propionaldehyde

> <PUBCHEM_IUPAC_INCHI>
InChI=1S/C21H36O18/c22-1-6(26)5-34-20-17(14(31)11(28)8(3-24)36-20)39-21-18(15(32)12(29)9(4-25)37-21)38-19-16(33)13(30)10(27)7(2-23)35-19/h1,6-21,23-33H,2-5H2/t6-,7-,8-,9-,10+,11+,12+,13+,14+,15+,16-,17-,18-,19+,20-,21+/m1/s1

> <PUBCHEM_IUPAC_INCHIKEY>
SEEZHVGIDGODIU-LJVNLGSDSA-N

> <PUBCHEM_XLOGP3_AA>
-6.4

> <PUBCHEM_EXACT_MASS>
576.19016430

> <PUBCHEM_MOLECULAR_FORMULA>
C21H36O18

> <PUBCHEM_MOLECULAR_WEIGHT>
576.5

> <PUBCHEM_OPENEYE_CAN_SMILES>
C(C1C(C(C(C(O1)OC2C(C(C(OC2OC3C(C(C(OC3OCC(C=O)O)CO)O)O)CO)O)O)O)O)O)O

> <PUBCHEM_OPENEYE_ISO_SMILES>
C([C@@H]1[C@@H]([C@@H]([C@H]([C@@H](O1)O[C@@H]2[C@H]([C@H]([C@H](O[C@H]2O[C@@H]3[C@H]([C@H]([C@H](O[C@H]3OC[C@@H](C=O)O)CO)O)O)CO)O)O)O)O)O)O

> <PUBCHEM_CACTVS_TPSA>
295

> <PUBCHEM_MONOISOTOPIC_WEIGHT>
576.19016430

> <PUBCHEM_TOTAL_CHARGE>
0

> <PUBCHEM_HEAVY_ATOM_COUNT>
39

> <PUBCHEM_ATOM_DEF_STEREO_COUNT>
16

> <PUBCHEM_ATOM_UDEF_STEREO_COUNT>
0

> <PUBCHEM_BOND_DEF_STEREO_COUNT>
0

> <PUBCHEM_BOND_UDEF_STEREO_COUNT>
0

> <PUBCHEM_ISOTOPIC_ATOM_COUNT>
0

> <PUBCHEM_COMPONENT_COUNT>
1

> <PUBCHEM_CACTVS_TAUTO_COUNT>
-1

> <PUBCHEM_COORDINATE_TYPE>
1
5
255

> <PUBCHEM_BONDANNOTATIONS>
20  1  6
22  1  6
27  10  5
29  11  5
31  12  6
32  13  6
38  17  6
19  2  5
26  2  6
24  34  6
30  35  5
33  36  6
21  6  6
23  7  6
28  8  5
25  9  5

$$$$
