 
  -OEChem-10192104192D

 75 76  0     1  0  0  0  0  0999 V2000
    5.8671    0.7306    0.0000 O   0  0  0  0  0  0  0  0  0  0  0  0
    6.8671   -0.2694    0.0000 O   0  0  0  0  0  0  0  0  0  0  0  0
    5.1350   -0.2694    0.0000 O   0  0  0  0  0  0  0  0  0  0  0  0
    8.1271    1.9906    0.0000 O   0  0  0  0  0  0  0  0  0  0  0  0
    6.3671    3.2694    0.0000 O   0  0  0  0  0  0  0  0  0  0  0  0
    8.5613    1.0907    0.0000 O   0  0  0  0  0  0  0  0  0  0  0  0
    6.8671   -2.2694    0.0000 O   0  0  0  0  0  0  0  0  0  0  0  0
    5.1350   -3.2694    0.0000 O   0  0  0  0  0  0  0  0  0  0  0  0
    3.4030   -2.2694    0.0000 O   0  0  0  0  0  0  0  0  0  0  0  0
    4.3991    2.9688    0.0000 O   0  0  0  0  0  0  0  0  0  0  0  0
    2.5369   -0.7694    0.0000 O   0  0  0  0  0  0  0  0  0  0  0  0
   11.4144    0.1636    0.0000 O   0  0  0  0  0  0  0  0  0  0  0  0
   10.0476    2.4290    0.0000 O   0  0  0  0  0  0  0  0  0  0  0  0
   11.7418    2.7891    0.0000 O   0  0  0  0  0  0  0  0  0  0  0  0
   13.1086    0.5238    0.0000 O   0  0  0  0  0  0  0  0  0  0  0  0
    9.7202   -0.1965    0.0000 O   0  0  0  0  0  0  0  0  0  0  0  0
   13.4360    3.1492    0.0000 O   0  0  0  0  0  0  0  0  0  0  0  0
   14.8028    0.8839    0.0000 O   0  0  0  0  0  0  0  0  0  0  0  0
   16.2891    2.2221    0.0000 O   0  0  0  0  0  0  0  0  0  0  0  0
    6.8671    0.7306    0.0000 C   0  0  1  0  0  0  0  0  0  0  0  0
    7.1761    1.6816    0.0000 C   0  0  2  0  0  0  0  0  0  0  0  0
    6.3671    2.2694    0.0000 C   0  0  1  0  0  0  0  0  0  0  0  0
    5.5580    1.6816    0.0000 C   0  0  1  0  0  0  0  0  0  0  0  0
    6.0010   -0.7694    0.0000 C   0  0  1  0  0  0  0  0  0  0  0  0
    6.0010   -1.7694    0.0000 C   0  0  1  0  0  0  0  0  0  0  0  0
    7.8181    0.4216    0.0000 C   0  0  0  0  0  0  0  0  0  0  0  0
    5.1350   -2.2694    0.0000 C   0  0  2  0  0  0  0  0  0  0  0  0
    4.2690   -1.7694    0.0000 C   0  0  1  0  0  0  0  0  0  0  0  0
    4.2690   -0.7694    0.0000 C   0  0  1  0  0  0  0  0  0  0  0  0
    4.6070    1.9906    0.0000 C   0  0  0  0  0  0  0  0  0  0  0  0
    3.4030   -0.2694    0.0000 C   0  0  0  0  0  0  0  0  0  0  0  0
   11.2065    1.1418    0.0000 C   0  0  3  0  0  0  0  0  0  0  0  0
   10.2555    1.4508    0.0000 C   0  0  3  0  0  0  0  0  0  0  0  0
    9.5123    0.7817    0.0000 C   0  0  0  0  0  0  0  0  0  0  0  0
   11.9497    1.8109    0.0000 C   0  0  3  0  0  0  0  0  0  0  0  0
   12.9007    1.5019    0.0000 C   0  0  3  0  0  0  0  0  0  0  0  0
   13.6439    2.1710    0.0000 C   0  0  3  0  0  0  0  0  0  0  0  0
   14.5949    1.8620    0.0000 C   0  0  3  0  0  0  0  0  0  0  0  0
   15.3381    2.5311    0.0000 C   0  0  0  0  0  0  0  0  0  0  0  0
    7.6145    1.2432    0.0000 H   0  0  0  0  0  0  0  0  0  0  0  0
    6.9195    2.5509    0.0000 H   0  0  0  0  0  0  0  0  0  0  0  0
    5.1196    1.2432    0.0000 H   0  0  0  0  0  0  0  0  0  0  0  0
    6.0010   -0.1494    0.0000 H   0  0  0  0  0  0  0  0  0  0  0  0
    6.0010   -2.3894    0.0000 H   0  0  0  0  0  0  0  0  0  0  0  0
    7.5270   -0.1259    0.0000 H   0  0  0  0  0  0  0  0  0  0  0  0
    8.3067    0.0399    0.0000 H   0  0  0  0  0  0  0  0  0  0  0  0
    4.5981   -2.5794    0.0000 H   0  0  0  0  0  0  0  0  0  0  0  0
    4.2690   -2.3894    0.0000 H   0  0  0  0  0  0  0  0  0  0  0  0
    4.2690   -0.1494    0.0000 H   0  0  0  0  0  0  0  0  0  0  0  0
    3.9874    1.9690    0.0000 H   0  0  0  0  0  0  0  0  0  0  0  0
    4.5207    1.3767    0.0000 H   0  0  0  0  0  0  0  0  0  0  0  0
    8.2560    2.5971    0.0000 H   0  0  0  0  0  0  0  0  0  0  0  0
    6.9040    3.5794    0.0000 H   0  0  0  0  0  0  0  0  0  0  0  0
    3.8015    0.2055    0.0000 H   0  0  0  0  0  0  0  0  0  0  0  0
    3.0044    0.2055    0.0000 H   0  0  0  0  0  0  0  0  0  0  0  0
    6.8671   -2.8894    0.0000 H   0  0  0  0  0  0  0  0  0  0  0  0
    4.5981   -3.5794    0.0000 H   0  0  0  0  0  0  0  0  0  0  0  0
    3.4030   -2.8894    0.0000 H   0  0  0  0  0  0  0  0  0  0  0  0
   11.7962    0.9502    0.0000 H   0  0  0  0  0  0  0  0  0  0  0  0
    9.6658    1.6424    0.0000 H   0  0  0  0  0  0  0  0  0  0  0  0
   11.3600    2.0025    0.0000 H   0  0  0  0  0  0  0  0  0  0  0  0
   13.4904    1.3103    0.0000 H   0  0  0  0  0  0  0  0  0  0  0  0
    3.8094    3.1604    0.0000 H   0  0  0  0  0  0  0  0  0  0  0  0
   13.0542    2.3626    0.0000 H   0  0  0  0  0  0  0  0  0  0  0  0
    2.0000   -0.4594    0.0000 H   0  0  0  0  0  0  0  0  0  0  0  0
   15.1846    1.6704    0.0000 H   0  0  0  0  0  0  0  0  0  0  0  0
   12.0041   -0.0279    0.0000 H   0  0  0  0  0  0  0  0  0  0  0  0
   10.5083    2.8438    0.0000 H   0  0  0  0  0  0  0  0  0  0  0  0
   12.2025    3.2039    0.0000 H   0  0  0  0  0  0  0  0  0  0  0  0
   15.6291    3.0786    0.0000 H   0  0  0  0  0  0  0  0  0  0  0  0
   14.8495    2.9129    0.0000 H   0  0  0  0  0  0  0  0  0  0  0  0
   13.6983    0.3322    0.0000 H   0  0  0  0  0  0  0  0  0  0  0  0
   13.8967    3.5640    0.0000 H   0  0  0  0  0  0  0  0  0  0  0  0
   15.3925    0.6923    0.0000 H   0  0  0  0  0  0  0  0  0  0  0  0
   16.7499    2.6370    0.0000 H   0  0  0  0  0  0  0  0  0  0  0  0
  1 20  1  0  0  0  0
  1 23  1  0  0  0  0
 20  2  1  6  0  0  0
 24  2  1  6  0  0  0
  3 24  1  0  0  0  0
  3 29  1  0  0  0  0
 21  4  1  6  0  0  0
  4 52  1  0  0  0  0
 22  5  1  1  0  0  0
  5 53  1  0  0  0  0
  6 26  1  0  0  0  0
  6 34  1  0  0  0  0
 25  7  1  6  0  0  0
  7 56  1  0  0  0  0
 27  8  1  1  0  0  0
  8 57  1  0  0  0  0
 28  9  1  6  0  0  0
  9 58  1  0  0  0  0
 10 30  1  0  0  0  0
 10 63  1  0  0  0  0
 11 31  1  0  0  0  0
 11 65  1  0  0  0  0
 12 32  1  0  0  0  0
 12 67  1  0  0  0  0
 13 33  1  0  0  0  0
 13 68  1  0  0  0  0
 14 35  1  0  0  0  0
 14 69  1  0  0  0  0
 15 36  1  0  0  0  0
 15 72  1  0  0  0  0
 16 34  2  0  0  0  0
 17 37  1  0  0  0  0
 17 73  1  0  0  0  0
 18 38  1  0  0  0  0
 18 74  1  0  0  0  0
 19 39  1  0  0  0  0
 19 75  1  0  0  0  0
 20 21  1  0  0  0  0
 20 26  1  0  0  0  0
 21 22  1  0  0  0  0
 21 40  1  0  0  0  0
 22 23  1  0  0  0  0
 22 41  1  0  0  0  0
 23 30  1  6  0  0  0
 23 42  1  0  0  0  0
 24 25  1  0  0  0  0
 24 43  1  0  0  0  0
 25 27  1  0  0  0  0
 25 44  1  0  0  0  0
 26 45  1  0  0  0  0
 26 46  1  0  0  0  0
 27 28  1  0  0  0  0
 27 47  1  0  0  0  0
 28 29  1  0  0  0  0
 28 48  1  0  0  0  0
 29 31  1  1  0  0  0
 29 49  1  0  0  0  0
 30 50  1  0  0  0  0
 30 51  1  0  0  0  0
 31 54  1  0  0  0  0
 31 55  1  0  0  0  0
 32 33  1  0  0  0  0
 32 35  1  0  0  0  0
 32 59  1  0  0  0  0
 33 34  1  0  0  0  0
 33 60  1  0  0  0  0
 35 36  1  0  0  0  0
 35 61  1  0  0  0  0
 36 37  1  0  0  0  0
 36 62  1  0  0  0  0
 37 38  1  0  0  0  0
 37 64  1  0  0  0  0
 38 39  1  0  0  0  0
 38 66  1  0  0  0  0
 39 70  1  0  0  0  0
 39 71  1  0  0  0  0
M  END
> <PUBCHEM_COMPOUND_CID>
91406927

> <PUBCHEM_COMPOUND_CANONICALIZED>
1

> <PUBCHEM_CACTVS_COMPLEXITY>
773

> <PUBCHEM_CACTVS_HBOND_ACCEPTOR>
19

> <PUBCHEM_CACTVS_HBOND_DONOR>
14

> <PUBCHEM_CACTVS_ROTATABLE_BOND>
14

> <PUBCHEM_CACTVS_SUBSKEYS>
AAADcfB4PgAAAAAAAAAAAAAAAAAAASAAAAAkAAAAAAAAAAAAAAAAGgAACAAACBSwgAMACAAABgAIAACQCAIAAAAAAAAAAAFAAAAREBYAAAAiQAAFIAAHAAHK7KzAAAAAAAAAAAAAAAAAAAAAAAAAAAAAAA==

> <PUBCHEM_IUPAC_OPENEYE_NAME>
[(2S,3S,4S,5R)-3,4-dihydroxy-5-(hydroxymethyl)-2-[(2R,3R,4S,5S,6R)-3,4,5-trihydroxy-6-(hydroxymethyl)tetrahydropyran-2-yl]oxy-tetrahydrofuran-2-yl]methyl 2,3,4,5,6,7,8-heptahydroxyoctanoate

> <PUBCHEM_IUPAC_CAS_NAME>
2,3,4,5,6,7,8-heptahydroxyoctanoic acid [(2S,3S,4S,5R)-3,4-dihydroxy-5-(hydroxymethyl)-2-[[(2R,3R,4S,5S,6R)-3,4,5-trihydroxy-6-(hydroxymethyl)-2-oxanyl]oxy]-2-oxolanyl]methyl ester

> <PUBCHEM_IUPAC_NAME_MARKUP>
[(2<I>S</I>,3<I>S</I>,4<I>S</I>,5<I>R</I>)-3,4-dihydroxy-5-(hydroxymethyl)-2-[(2<I>R</I>,3<I>R</I>,4<I>S</I>,5<I>S</I>,6<I>R</I>)-3,4,5-trihydroxy-6-(hydroxymethyl)oxan-2-yl]oxyoxolan-2-yl]methyl 2,3,4,5,6,7,8-heptahydroxyoctanoate

> <PUBCHEM_IUPAC_NAME>
[(2S,3S,4S,5R)-3,4-dihydroxy-5-(hydroxymethyl)-2-[(2R,3R,4S,5S,6R)-3,4,5-trihydroxy-6-(hydroxymethyl)oxan-2-yl]oxyoxolan-2-yl]methyl 2,3,4,5,6,7,8-heptahydroxyoctanoate

> <PUBCHEM_IUPAC_SYSTEMATIC_NAME>
[(2S,3S,4S,5R)-5-(hydroxymethyl)-2-[(2R,3R,4S,5S,6R)-6-(hydroxymethyl)-3,4,5-tris(oxidanyl)oxan-2-yl]oxy-3,4-bis(oxidanyl)oxolan-2-yl]methyl 2,3,4,5,6,7,8-heptakis(oxidanyl)octanoate

> <PUBCHEM_IUPAC_TRADITIONAL_NAME>
2,3,4,5,6,7,8-heptahydroxycaprylic acid [(2S,3S,4S,5R)-3,4-dihydroxy-5-methylol-2-[(2R,3R,4S,5S,6R)-3,4,5-trihydroxy-6-methylol-tetrahydropyran-2-yl]oxy-tetrahydrofuran-2-yl]methyl ester

> <PUBCHEM_IUPAC_INCHI>
InChI=1S/C20H36O19/c21-1-5(24)8(25)11(28)13(30)14(31)15(32)18(35)36-4-20(17(34)10(27)7(3-23)38-20)39-19-16(33)12(29)9(26)6(2-22)37-19/h5-17,19,21-34H,1-4H2/t5?,6-,7-,8?,9-,10-,11?,12+,13?,14?,15?,16-,17+,19-,20+/m1/s1

> <PUBCHEM_IUPAC_INCHIKEY>
SVOOHCFJBBYAQM-IFXQJNARSA-N

> <PUBCHEM_XLOGP3>
-8.1

> <PUBCHEM_EXACT_MASS>
580.18507891

> <PUBCHEM_MOLECULAR_FORMULA>
C20H36O19

> <PUBCHEM_MOLECULAR_WEIGHT>
580.5

> <PUBCHEM_OPENEYE_CAN_SMILES>
C(C1C(C(C(C(O1)OC2(C(C(C(O2)CO)O)O)COC(=O)C(C(C(C(C(C(CO)O)O)O)O)O)O)O)O)O)O

> <PUBCHEM_OPENEYE_ISO_SMILES>
C([C@@H]1[C@H]([C@@H]([C@H]([C@H](O1)O[C@]2([C@H]([C@@H]([C@H](O2)CO)O)O)COC(=O)C(C(C(C(C(C(CO)O)O)O)O)O)O)O)O)O)O

> <PUBCHEM_CACTVS_TPSA>
337

> <PUBCHEM_MONOISOTOPIC_WEIGHT>
580.18507891

> <PUBCHEM_TOTAL_CHARGE>
0

> <PUBCHEM_HEAVY_ATOM_COUNT>
39

> <PUBCHEM_ATOM_DEF_STEREO_COUNT>
9

> <PUBCHEM_ATOM_UDEF_STEREO_COUNT>
6

> <PUBCHEM_BOND_DEF_STEREO_COUNT>
0

> <PUBCHEM_BOND_UDEF_STEREO_COUNT>
0

> <PUBCHEM_ISOTOPIC_ATOM_COUNT>
0

> <PUBCHEM_COMPONENT_COUNT>
1

> <PUBCHEM_CACTVS_TAUTO_COUNT>
-1

> <PUBCHEM_COORDINATE_TYPE>
1
5
255

> <PUBCHEM_BONDANNOTATIONS>
32  12  3
33  13  3
35  14  3
36  15  3
37  17  3
38  18  3
20  2  6
24  2  6
23  30  6
29  31  5
21  4  6
22  5  5
25  7  6
27  8  5
28  9  6

$$$$
