 
  -OEChem-10192104172D

 31 31  0     1  0  0  0  0  0999 V2000
    5.4641    0.2500    0.0000 O   0  0  0  0  0  0  0  0  0  0  0  0
    3.7320   -1.7500    0.0000 O   0  0  0  0  0  0  0  0  0  0  0  0
    5.4641   -2.7500    0.0000 O   0  0  0  0  0  0  0  0  0  0  0  0
    7.1962   -1.7500    0.0000 O   0  0  0  0  0  0  0  0  0  0  0  0
    2.8660   -0.2500    0.0000 O   0  0  0  0  0  0  0  0  0  0  0  0
    7.1962    0.2500    0.0000 O   0  0  0  0  0  0  0  0  0  0  0  0
    4.5981    1.7500    0.0000 O   0  0  0  0  0  0  0  0  0  0  0  0
    2.8660    2.7500    0.0000 O   0  0  0  0  0  0  0  0  0  0  0  0
    2.0000    1.2500    0.0000 O   0  0  0  0  0  0  0  0  0  0  0  0
    4.5981   -0.2500    0.0000 C   0  0  1  0  0  0  0  0  0  0  0  0
    4.5981   -1.2500    0.0000 C   0  0  2  0  0  0  0  0  0  0  0  0
    5.4641   -1.7500    0.0000 C   0  0  1  0  0  0  0  0  0  0  0  0
    6.3301   -1.2500    0.0000 C   0  0  1  0  0  0  0  0  0  0  0  0
    3.7320    0.2500    0.0000 C   0  0  1  0  0  0  0  0  0  0  0  0
    6.3301   -0.2500    0.0000 C   0  0  3  0  0  0  0  0  0  0  0  0
    3.7320    1.2500    0.0000 C   0  0  2  0  0  0  0  0  0  0  0  0
    2.8660    1.7500    0.0000 C   0  0  0  0  0  0  0  0  0  0  0  0
    4.5981    0.6000    0.0000 H   0  0  0  0  0  0  0  0  0  0  0  0
    4.5981   -1.8700    0.0000 H   0  0  0  0  0  0  0  0  0  0  0  0
    4.9272   -2.0600    0.0000 H   0  0  0  0  0  0  0  0  0  0  0  0
    6.3301   -1.8700    0.0000 H   0  0  0  0  0  0  0  0  0  0  0  0
    3.7320   -0.3700    0.0000 H   0  0  0  0  0  0  0  0  0  0  0  0
    6.3301    0.3700    0.0000 H   0  0  0  0  0  0  0  0  0  0  0  0
    3.7320    1.8700    0.0000 H   0  0  0  0  0  0  0  0  0  0  0  0
    3.7320   -2.3700    0.0000 H   0  0  0  0  0  0  0  0  0  0  0  0
    6.0010   -3.0600    0.0000 H   0  0  0  0  0  0  0  0  0  0  0  0
    7.7331   -1.4400    0.0000 H   0  0  0  0  0  0  0  0  0  0  0  0
    2.3291    0.0600    0.0000 H   0  0  0  0  0  0  0  0  0  0  0  0
    7.1962    0.8700    0.0000 H   0  0  0  0  0  0  0  0  0  0  0  0
    4.5981    2.3700    0.0000 H   0  0  0  0  0  0  0  0  0  0  0  0
    2.3291    3.0600    0.0000 H   0  0  0  0  0  0  0  0  0  0  0  0
  1 10  1  0  0  0  0
  1 15  1  0  0  0  0
 11  2  1  6  0  0  0
  2 25  1  0  0  0  0
 12  3  1  1  0  0  0
  3 26  1  0  0  0  0
 13  4  1  1  0  0  0
  4 27  1  0  0  0  0
 14  5  1  6  0  0  0
  5 28  1  0  0  0  0
  6 15  1  0  0  0  0
  6 29  1  0  0  0  0
 16  7  1  6  0  0  0
  7 30  1  0  0  0  0
  8 17  1  0  0  0  0
  8 31  1  0  0  0  0
  9 17  2  0  0  0  0
 10 11  1  0  0  0  0
 10 14  1  0  0  0  0
 10 18  1  6  0  0  0
 11 12  1  0  0  0  0
 11 19  1  0  0  0  0
 12 13  1  0  0  0  0
 12 20  1  0  0  0  0
 13 15  1  0  0  0  0
 13 21  1  0  0  0  0
 14 16  1  0  0  0  0
 14 22  1  0  0  0  0
 15 23  1  0  0  0  0
 16 17  1  0  0  0  0
 16 24  1  0  0  0  0
M  END
> <PUBCHEM_COMPOUND_CID>
56925718

> <PUBCHEM_COMPOUND_CANONICALIZED>
1

> <PUBCHEM_CACTVS_COMPLEXITY>
282

> <PUBCHEM_CACTVS_HBOND_ACCEPTOR>
9

> <PUBCHEM_CACTVS_HBOND_DONOR>
7

> <PUBCHEM_CACTVS_ROTATABLE_BOND>
3

> <PUBCHEM_CACTVS_SUBSKEYS>
AAADccBwPAAAAAAAAAAAAAAAAAAAAAAAAAAkAAAAAAAAAAAAAAAAGgAACAAACBSwgAMACAAABgAIAACQCAIAAAAAAAAAAAFAAAAREBYAAAACQAAFIAAHAAHK7KTAAAAAAAAAAAAAAAAAAAAAAAAAAAAAAA==

> <PUBCHEM_IUPAC_OPENEYE_NAME>
(2R,3R)-2,3-dihydroxy-3-[(2S,3S,4S,5S)-3,4,5,6-tetrahydroxytetrahydropyran-2-yl]propanoic acid

> <PUBCHEM_IUPAC_CAS_NAME>
(2R,3R)-2,3-dihydroxy-3-[(2S,3S,4S,5S)-3,4,5,6-tetrahydroxy-2-oxanyl]propanoic acid

> <PUBCHEM_IUPAC_NAME_MARKUP>
(2<I>R</I>,3<I>R</I>)-2,3-dihydroxy-3-[(2<I>S</I>,3<I>S</I>,4<I>S</I>,5<I>S</I>)-3,4,5,6-tetrahydroxyoxan-2-yl]propanoic acid

> <PUBCHEM_IUPAC_NAME>
(2R,3R)-2,3-dihydroxy-3-[(2S,3S,4S,5S)-3,4,5,6-tetrahydroxyoxan-2-yl]propanoic acid

> <PUBCHEM_IUPAC_SYSTEMATIC_NAME>
(2R,3R)-2,3-bis(oxidanyl)-3-[(2S,3S,4S,5S)-3,4,5,6-tetrakis(oxidanyl)oxan-2-yl]propanoic acid

> <PUBCHEM_IUPAC_TRADITIONAL_NAME>
(2R,3R)-2,3-dihydroxy-3-[(2S,3S,4S,5S)-3,4,5,6-tetrahydroxytetrahydropyran-2-yl]propionic acid

> <PUBCHEM_IUPAC_INCHI>
InChI=1S/C8H14O9/c9-1-2(10)6(17-8(16)5(1)13)3(11)4(12)7(14)15/h1-6,8-13,16H,(H,14,15)/t1-,2-,3+,4+,5-,6-,8?/m0/s1

> <PUBCHEM_IUPAC_INCHIKEY>
JUACMCCCOPYQOH-NKGNXVEKSA-N

> <PUBCHEM_XLOGP3_AA>
-3.6

> <PUBCHEM_EXACT_MASS>
254.06378202

> <PUBCHEM_MOLECULAR_FORMULA>
C8H14O9

> <PUBCHEM_MOLECULAR_WEIGHT>
254.19

> <PUBCHEM_OPENEYE_CAN_SMILES>
C1(C(C(OC(C1O)O)C(C(C(=O)O)O)O)O)O

> <PUBCHEM_OPENEYE_ISO_SMILES>
[C@@H]1([C@@H]([C@H](OC([C@H]1O)O)[C@@H]([C@H](C(=O)O)O)O)O)O

> <PUBCHEM_CACTVS_TPSA>
168

> <PUBCHEM_MONOISOTOPIC_WEIGHT>
254.06378202

> <PUBCHEM_TOTAL_CHARGE>
0

> <PUBCHEM_HEAVY_ATOM_COUNT>
17

> <PUBCHEM_ATOM_DEF_STEREO_COUNT>
6

> <PUBCHEM_ATOM_UDEF_STEREO_COUNT>
1

> <PUBCHEM_BOND_DEF_STEREO_COUNT>
0

> <PUBCHEM_BOND_UDEF_STEREO_COUNT>
0

> <PUBCHEM_ISOTOPIC_ATOM_COUNT>
0

> <PUBCHEM_COMPONENT_COUNT>
1

> <PUBCHEM_CACTVS_TAUTO_COUNT>
-1

> <PUBCHEM_COORDINATE_TYPE>
1
5
255

> <PUBCHEM_BONDANNOTATIONS>
10  18  6
11  2  6
12  3  5
13  4  5
14  5  6
15  6  3
16  7  6

$$$$
