 
  -OEChem-10192103542D

 61 63  0     1  0  0  0  0  0999 V2000
    6.6476   -1.0012    0.0000 O   0  0  0  0  0  0  0  0  0  0  0  0
    8.3797   -0.0012    0.0000 O   0  0  0  0  0  0  0  0  0  0  0  0
    6.6476    1.9988    0.0000 O   0  0  0  0  0  0  0  0  0  0  0  0
    4.8680   -1.0945    0.0000 O   0  0  0  0  0  0  0  0  0  0  0  0
    9.2457    1.4988    0.0000 O   0  0  0  0  0  0  0  0  0  0  0  0
    4.9156   -0.0012    0.0000 O   0  0  0  0  0  0  0  0  0  0  0  0
    8.3797    1.9988    0.0000 O   0  0  0  0  0  0  0  0  0  0  0  0
    6.4202   -3.1649    0.0000 O   0  0  0  0  0  0  0  0  0  0  0  0
   10.1117   -1.0012    0.0000 O   0  0  0  0  0  0  0  0  0  0  0  0
    4.2922   -3.6172    0.0000 O   0  0  0  0  0  0  0  0  0  0  0  0
   11.8438   -0.0012    0.0000 O   0  0  0  0  0  0  0  0  0  0  0  0
   11.8438    1.9988    0.0000 O   0  0  0  0  0  0  0  0  0  0  0  0
    2.6166   -2.5421    0.0000 O   0  0  0  0  0  0  0  0  0  0  0  0
   10.9777    3.4988    0.0000 O   0  0  0  0  0  0  0  0  0  0  0  0
    4.9156    2.9988    0.0000 O   0  0  0  0  0  0  0  0  0  0  0  0
    4.0495    1.4988    0.0000 O   0  0  0  0  0  0  0  0  0  0  0  0
    6.6476   -0.0012    0.0000 C   0  0  2  0  0  0  0  0  0  0  0  0
    7.5136    0.4988    0.0000 C   0  0  2  0  0  0  0  0  0  0  0  0
    5.7816    0.4988    0.0000 C   0  0  1  0  0  0  0  0  0  0  0  0
    5.7816   -1.5012    0.0000 C   0  0  2  0  0  0  0  0  0  0  0  0
    9.2457    0.4988    0.0000 C   0  0  2  0  0  0  0  0  0  0  0  0
    7.5136    1.4988    0.0000 C   0  0  1  0  0  0  0  0  0  0  0  0
    5.6771   -2.4957    0.0000 C   0  0  1  0  0  0  0  0  0  0  0  0
    5.7816    1.4988    0.0000 C   0  0  1  0  0  0  0  0  0  0  0  0
   10.1117   -0.0012    0.0000 C   0  0  1  0  0  0  0  0  0  0  0  0
    4.6989   -2.7036    0.0000 C   0  0  2  0  0  0  0  0  0  0  0  0
   10.9777    0.4988    0.0000 C   0  0  2  0  0  0  0  0  0  0  0  0
    4.1989   -1.8376    0.0000 C   0  0  2  0  0  0  0  0  0  0  0  0
   10.9777    1.4988    0.0000 C   0  0  1  0  0  0  0  0  0  0  0  0
   10.1117    1.9988    0.0000 C   0  0  1  0  0  0  0  0  0  0  0  0
    3.2044   -1.7331    0.0000 C   0  0  0  0  0  0  0  0  0  0  0  0
   10.1117    2.9988    0.0000 C   0  0  0  0  0  0  0  0  0  0  0  0
    4.9156    1.9988    0.0000 C   0  0  0  0  0  0  0  0  0  0  0  0
    6.1107   -0.3112    0.0000 H   0  0  0  0  0  0  0  0  0  0  0  0
    7.5136   -0.1212    0.0000 H   0  0  0  0  0  0  0  0  0  0  0  0
    5.2446    0.8088    0.0000 H   0  0  0  0  0  0  0  0  0  0  0  0
    6.3016   -1.8389    0.0000 H   0  0  0  0  0  0  0  0  0  0  0  0
    8.7088    0.8088    0.0000 H   0  0  0  0  0  0  0  0  0  0  0  0
    7.5136    2.1188    0.0000 H   0  0  0  0  0  0  0  0  0  0  0  0
    5.5166   -3.0946    0.0000 H   0  0  0  0  0  0  0  0  0  0  0  0
    5.7816    2.1188    0.0000 H   0  0  0  0  0  0  0  0  0  0  0  0
    9.5748   -0.3112    0.0000 H   0  0  0  0  0  0  0  0  0  0  0  0
    5.0891   -3.1855    0.0000 H   0  0  0  0  0  0  0  0  0  0  0  0
   10.9777   -0.1212    0.0000 H   0  0  0  0  0  0  0  0  0  0  0  0
    3.9767   -1.2588    0.0000 H   0  0  0  0  0  0  0  0  0  0  0  0
   11.5147    1.1888    0.0000 H   0  0  0  0  0  0  0  0  0  0  0  0
    9.5748    2.3088    0.0000 H   0  0  0  0  0  0  0  0  0  0  0  0
    3.3753   -1.1371    0.0000 H   0  0  0  0  0  0  0  0  0  0  0  0
    2.6471   -1.4613    0.0000 H   0  0  0  0  0  0  0  0  0  0  0  0
    9.8997    3.5814    0.0000 H   0  0  0  0  0  0  0  0  0  0  0  0
    9.5011    2.8911    0.0000 H   0  0  0  0  0  0  0  0  0  0  0  0
    4.3786    0.3088    0.0000 H   0  0  0  0  0  0  0  0  0  0  0  0
    8.3797    2.6188    0.0000 H   0  0  0  0  0  0  0  0  0  0  0  0
    6.2913   -3.7713    0.0000 H   0  0  0  0  0  0  0  0  0  0  0  0
   10.6486   -1.3112    0.0000 H   0  0  0  0  0  0  0  0  0  0  0  0
    4.6566   -4.1188    0.0000 H   0  0  0  0  0  0  0  0  0  0  0  0
   12.3807    0.3088    0.0000 H   0  0  0  0  0  0  0  0  0  0  0  0
   12.3807    1.6888    0.0000 H   0  0  0  0  0  0  0  0  0  0  0  0
    2.0000   -2.4773    0.0000 H   0  0  0  0  0  0  0  0  0  0  0  0
   10.9777    4.1188    0.0000 H   0  0  0  0  0  0  0  0  0  0  0  0
    4.3786    3.3088    0.0000 H   0  0  0  0  0  0  0  0  0  0  0  0
 17  1  1  1  0  0  0
 20  1  1  1  0  0  0
 18  2  1  6  0  0  0
 21  2  1  6  0  0  0
  3 22  1  0  0  0  0
  3 24  1  0  0  0  0
  4 20  1  0  0  0  0
  4 28  1  0  0  0  0
  5 21  1  0  0  0  0
  5 30  1  0  0  0  0
 19  6  1  6  0  0  0
  6 52  1  0  0  0  0
 22  7  1  1  0  0  0
  7 53  1  0  0  0  0
 23  8  1  6  0  0  0
  8 54  1  0  0  0  0
 25  9  1  1  0  0  0
  9 55  1  0  0  0  0
 26 10  1  1  0  0  0
 10 56  1  0  0  0  0
 27 11  1  6  0  0  0
 11 57  1  0  0  0  0
 29 12  1  1  0  0  0
 12 58  1  0  0  0  0
 13 31  1  0  0  0  0
 13 59  1  0  0  0  0
 14 32  1  0  0  0  0
 14 60  1  0  0  0  0
 15 33  1  0  0  0  0
 15 61  1  0  0  0  0
 16 33  2  0  0  0  0
 17 18  1  0  0  0  0
 17 19  1  0  0  0  0
 17 34  1  0  0  0  0
 18 22  1  0  0  0  0
 18 35  1  0  0  0  0
 19 24  1  0  0  0  0
 19 36  1  0  0  0  0
 20 23  1  0  0  0  0
 20 37  1  0  0  0  0
 21 25  1  0  0  0  0
 21 38  1  0  0  0  0
 22 39  1  0  0  0  0
 23 26  1  0  0  0  0
 23 40  1  0  0  0  0
 24 33  1  1  0  0  0
 24 41  1  0  0  0  0
 25 27  1  0  0  0  0
 25 42  1  0  0  0  0
 26 28  1  0  0  0  0
 26 43  1  0  0  0  0
 27 29  1  0  0  0  0
 27 44  1  0  0  0  0
 28 31  1  6  0  0  0
 28 45  1  0  0  0  0
 29 30  1  0  0  0  0
 29 46  1  0  0  0  0
 30 32  1  6  0  0  0
 30 47  1  0  0  0  0
 31 48  1  0  0  0  0
 31 49  1  0  0  0  0
 32 50  1  0  0  0  0
 32 51  1  0  0  0  0
M  END
> <PUBCHEM_COMPOUND_CID>
91853354

> <PUBCHEM_COMPOUND_CANONICALIZED>
1

> <PUBCHEM_CACTVS_COMPLEXITY>
665

> <PUBCHEM_CACTVS_HBOND_ACCEPTOR>
16

> <PUBCHEM_CACTVS_HBOND_DONOR>
10

> <PUBCHEM_CACTVS_ROTATABLE_BOND>
7

> <PUBCHEM_CACTVS_SUBSKEYS>
AAADceB4PgAAAAAAAAAAAAAAAAAAASAAAAAkSAAAAAAAAAAAAAAAGgAACAAACBSwgAMACAAABgAIAACQCAIAAAAAAAAAAAFAAAAREBYAAAQiQAAFIAAHAAHKbAxAAAAAAAAAAAAAAAAAAAAAAAAAAAAAAA==

> <PUBCHEM_IUPAC_OPENEYE_NAME>
(2S,3S,4S,5R,6R)-4-[(2S,3R,4R,5S)-3,4-dihydroxy-5-(hydroxymethyl)tetrahydrofuran-2-yl]oxy-3,6-dihydroxy-5-[(2S,3R,4S,5S,6R)-3,4,5-trihydroxy-6-(hydroxymethyl)tetrahydropyran-2-yl]oxy-tetrahydropyran-2-carboxylic acid

> <PUBCHEM_IUPAC_CAS_NAME>
(2S,3S,4S,5R,6R)-4-[[(2S,3R,4R,5S)-3,4-dihydroxy-5-(hydroxymethyl)-2-oxolanyl]oxy]-3,6-dihydroxy-5-[[(2S,3R,4S,5S,6R)-3,4,5-trihydroxy-6-(hydroxymethyl)-2-oxanyl]oxy]-2-oxanecarboxylic acid

> <PUBCHEM_IUPAC_NAME_MARKUP>
(2<I>S</I>,3<I>S</I>,4<I>S</I>,5<I>R</I>,6<I>R</I>)-4-[(2<I>S</I>,3<I>R</I>,4<I>R</I>,5<I>S</I>)-3,4-dihydroxy-5-(hydroxymethyl)oxolan-2-yl]oxy-3,6-dihydroxy-5-[(2<I>S</I>,3<I>R</I>,4<I>S</I>,5<I>S</I>,6<I>R</I>)-3,4,5-trihydroxy-6-(hydroxymethyl)oxan-2-yl]oxyoxane-2-carboxylic acid

> <PUBCHEM_IUPAC_NAME>
(2S,3S,4S,5R,6R)-4-[(2S,3R,4R,5S)-3,4-dihydroxy-5-(hydroxymethyl)oxolan-2-yl]oxy-3,6-dihydroxy-5-[(2S,3R,4S,5S,6R)-3,4,5-trihydroxy-6-(hydroxymethyl)oxan-2-yl]oxyoxane-2-carboxylic acid

> <PUBCHEM_IUPAC_SYSTEMATIC_NAME>
(2S,3S,4S,5R,6R)-4-[(2S,3R,4R,5S)-5-(hydroxymethyl)-3,4-bis(oxidanyl)oxolan-2-yl]oxy-5-[(2S,3R,4S,5S,6R)-6-(hydroxymethyl)-3,4,5-tris(oxidanyl)oxan-2-yl]oxy-3,6-bis(oxidanyl)oxane-2-carboxylic acid

> <PUBCHEM_IUPAC_TRADITIONAL_NAME>
(2S,3S,4S,5R,6R)-4-[(2S,3R,4R,5S)-3,4-dihydroxy-5-methylol-tetrahydrofuran-2-yl]oxy-3,6-dihydroxy-5-[(2S,3R,4S,5S,6R)-3,4,5-trihydroxy-6-methylol-tetrahydropyran-2-yl]oxy-tetrahydropyran-2-carboxylic acid

> <PUBCHEM_IUPAC_INCHI>
InChI=1S/C17H28O16/c18-1-3-5(20)7(22)9(24)17(29-3)33-13-11(10(25)12(14(26)27)31-15(13)28)32-16-8(23)6(21)4(2-19)30-16/h3-13,15-25,28H,1-2H2,(H,26,27)/t3-,4+,5-,6+,7+,8-,9-,10+,11+,12+,13-,15-,16+,17+/m1/s1

> <PUBCHEM_IUPAC_INCHIKEY>
DBURDIMVWQQBNT-BAAGFUQASA-N

> <PUBCHEM_XLOGP3_AA>
-4.9

> <PUBCHEM_EXACT_MASS>
488.13773480

> <PUBCHEM_MOLECULAR_FORMULA>
C17H28O16

> <PUBCHEM_MOLECULAR_WEIGHT>
488.4

> <PUBCHEM_OPENEYE_CAN_SMILES>
C(C1C(C(C(C(O1)OC2C(C(C(OC2O)C(=O)O)O)OC3C(C(C(O3)CO)O)O)O)O)O)O

> <PUBCHEM_OPENEYE_ISO_SMILES>
C([C@@H]1[C@H]([C@@H]([C@H]([C@@H](O1)O[C@@H]2[C@H]([C@@H]([C@H](O[C@H]2O)C(=O)O)O)O[C@H]3[C@@H]([C@H]([C@@H](O3)CO)O)O)O)O)O)O

> <PUBCHEM_CACTVS_TPSA>
266

> <PUBCHEM_MONOISOTOPIC_WEIGHT>
488.13773480

> <PUBCHEM_TOTAL_CHARGE>
0

> <PUBCHEM_HEAVY_ATOM_COUNT>
33

> <PUBCHEM_ATOM_DEF_STEREO_COUNT>
14

> <PUBCHEM_ATOM_UDEF_STEREO_COUNT>
0

> <PUBCHEM_BOND_DEF_STEREO_COUNT>
0

> <PUBCHEM_BOND_UDEF_STEREO_COUNT>
0

> <PUBCHEM_ISOTOPIC_ATOM_COUNT>
0

> <PUBCHEM_COMPONENT_COUNT>
1

> <PUBCHEM_CACTVS_TAUTO_COUNT>
-1

> <PUBCHEM_COORDINATE_TYPE>
1
5
255

> <PUBCHEM_BONDANNOTATIONS>
17  1  5
20  1  5
26  10  5
27  11  6
29  12  5
18  2  6
21  2  6
24  33  5
28  31  6
30  32  6
19  6  6
22  7  5
23  8  6
25  9  5

$$$$
