 
  -OEChem-10192104162D

 27 27  0     0  0  0  0  0  0999 V2000
    7.0826   -0.7265    0.0000 S   0  0  0  0  0  0  0  0  0  0  0  0
    9.7087    2.0522    0.0000 O   0  0  0  0  0  0  0  0  0  0  0  0
    5.1805   -0.1085    0.0000 O   0  0  0  0  0  0  0  0  0  0  0  0
    2.9511   -2.1159    0.0000 O   0  0  0  0  0  0  0  0  0  0  0  0
   10.5747    0.5522    0.0000 O   0  0  0  0  0  0  0  0  0  0  0  0
    3.4863   -0.4686    0.0000 O   0  0  0  0  0  0  0  0  0  0  0  0
    8.8427   -0.4478    0.0000 N   0  0  0  0  0  0  0  0  0  0  0  0
    9.6517   -1.0356    0.0000 N   0  0  0  0  0  0  0  0  0  0  0  0
    8.3427   -1.9866    0.0000 N   0  0  0  0  0  0  0  0  0  0  0  0
    4.6453   -1.7558    0.0000 N   0  0  0  0  0  0  0  0  0  0  0  0
    9.3427   -1.9866    0.0000 N   0  0  0  0  0  0  0  0  0  0  0  0
    8.8427    0.5522    0.0000 C   0  0  0  0  0  0  0  0  0  0  0  0
    8.0337   -1.0356    0.0000 C   0  0  0  0  0  0  0  0  0  0  0  0
    6.3395   -1.3957    0.0000 C   0  0  0  0  0  0  0  0  0  0  0  0
    5.3884   -1.0866    0.0000 C   0  0  0  0  0  0  0  0  0  0  0  0
    9.7087    1.0522    0.0000 C   0  0  0  0  0  0  0  0  0  0  0  0
    3.6942   -1.4468    0.0000 C   0  0  0  0  0  0  0  0  0  0  0  0
    2.0000   -1.8069    0.0000 C   0  0  0  0  0  0  0  0  0  0  0  0
    8.6306    1.1348    0.0000 H   0  0  0  0  0  0  0  0  0  0  0  0
    8.2321    0.4446    0.0000 H   0  0  0  0  0  0  0  0  0  0  0  0
    6.0484   -1.9431    0.0000 H   0  0  0  0  0  0  0  0  0  0  0  0
    6.8280   -1.7774    0.0000 H   0  0  0  0  0  0  0  0  0  0  0  0
    4.7742   -2.3622    0.0000 H   0  0  0  0  0  0  0  0  0  0  0  0
   10.2456    2.3622    0.0000 H   0  0  0  0  0  0  0  0  0  0  0  0
    2.1916   -1.2172    0.0000 H   0  0  0  0  0  0  0  0  0  0  0  0
    1.4103   -1.6153    0.0000 H   0  0  0  0  0  0  0  0  0  0  0  0
    1.8084   -2.3965    0.0000 H   0  0  0  0  0  0  0  0  0  0  0  0
  1 13  1  0  0  0  0
  1 14  1  0  0  0  0
  2 16  1  0  0  0  0
  2 24  1  0  0  0  0
  3 15  2  0  0  0  0
  4 17  1  0  0  0  0
  4 18  1  0  0  0  0
  5 16  2  0  0  0  0
  6 17  2  0  0  0  0
  7  8  1  0  0  0  0
  7 12  1  0  0  0  0
  7 13  1  0  0  0  0
  8 11  2  0  0  0  0
  9 11  1  0  0  0  0
  9 13  2  0  0  0  0
 10 15  1  0  0  0  0
 10 17  1  0  0  0  0
 10 23  1  0  0  0  0
 12 16  1  0  0  0  0
 12 19  1  0  0  0  0
 12 20  1  0  0  0  0
 14 15  1  0  0  0  0
 14 21  1  0  0  0  0
 14 22  1  0  0  0  0
 18 25  1  0  0  0  0
 18 26  1  0  0  0  0
 18 27  1  0  0  0  0
M  END
> <PUBCHEM_COMPOUND_CID>
65949244

> <PUBCHEM_COMPOUND_CANONICALIZED>
1

> <PUBCHEM_CACTVS_COMPLEXITY>
340

> <PUBCHEM_CACTVS_HBOND_ACCEPTOR>
9

> <PUBCHEM_CACTVS_HBOND_DONOR>
2

> <PUBCHEM_CACTVS_ROTATABLE_BOND>
6

> <PUBCHEM_CACTVS_SUBSKEYS>
AAADccBjuABAAAAAAAAAAAAAAAAAAWAAAAAAAAAAAAAAAAABgAAAHgQYCAAAAADFwAaDGAbIBggqAAGQPAAAEANAgJAVQACIAAGCAAAACCAAAAAAFCIQAAAAAAAAAAAAAAAAAAAAAAAAAAAAAAAAAAAAAA==

> <PUBCHEM_IUPAC_OPENEYE_NAME>
2-[5-[2-(methoxycarbonylamino)-2-oxo-ethyl]sulfanyltetrazol-1-yl]acetic acid

> <PUBCHEM_IUPAC_CAS_NAME>
2-[5-[[2-(methoxycarbonylamino)-2-oxoethyl]thio]-1-tetrazolyl]acetic acid

> <PUBCHEM_IUPAC_NAME_MARKUP>
2-[5-[2-(methoxycarbonylamino)-2-oxoethyl]sulfanyltetrazol-1-yl]acetic acid

> <PUBCHEM_IUPAC_NAME>
2-[5-[2-(methoxycarbonylamino)-2-oxoethyl]sulfanyltetrazol-1-yl]acetic acid

> <PUBCHEM_IUPAC_SYSTEMATIC_NAME>
2-[5-[2-(methoxycarbonylamino)-2-oxidanylidene-ethyl]sulfanyl-1,2,3,4-tetrazol-1-yl]ethanoic acid

> <PUBCHEM_IUPAC_TRADITIONAL_NAME>
2-[5-[[2-(carbomethoxyamino)-2-keto-ethyl]thio]tetrazol-1-yl]acetic acid

> <PUBCHEM_IUPAC_INCHI>
InChI=1S/C7H9N5O5S/c1-17-7(16)8-4(13)3-18-6-9-10-11-12(6)2-5(14)15/h2-3H2,1H3,(H,14,15)(H,8,13,16)

> <PUBCHEM_IUPAC_INCHIKEY>
HLBJZCIQVSTDKC-UHFFFAOYSA-N

> <PUBCHEM_XLOGP3_AA>
-0.4

> <PUBCHEM_EXACT_MASS>
275.03243958

> <PUBCHEM_MOLECULAR_FORMULA>
C7H9N5O5S

> <PUBCHEM_MOLECULAR_WEIGHT>
275.24

> <PUBCHEM_OPENEYE_CAN_SMILES>
COC(=O)NC(=O)CSC1=NN=NN1CC(=O)O

> <PUBCHEM_OPENEYE_ISO_SMILES>
COC(=O)NC(=O)CSC1=NN=NN1CC(=O)O

> <PUBCHEM_CACTVS_TPSA>
162

> <PUBCHEM_MONOISOTOPIC_WEIGHT>
275.03243958

> <PUBCHEM_TOTAL_CHARGE>
0

> <PUBCHEM_HEAVY_ATOM_COUNT>
18

> <PUBCHEM_ATOM_DEF_STEREO_COUNT>
0

> <PUBCHEM_ATOM_UDEF_STEREO_COUNT>
0

> <PUBCHEM_BOND_DEF_STEREO_COUNT>
0

> <PUBCHEM_BOND_UDEF_STEREO_COUNT>
0

> <PUBCHEM_ISOTOPIC_ATOM_COUNT>
0

> <PUBCHEM_COMPONENT_COUNT>
1

> <PUBCHEM_CACTVS_TAUTO_COUNT>
-1

> <PUBCHEM_COORDINATE_TYPE>
1
5
255

> <PUBCHEM_BONDANNOTATIONS>
7  13  8
7  8  8
8  11  8
9  11  8
9  13  8

$$$$
