 
  -OEChem-10192103572D

 40 40  0     1  0  0  0  0  0999 V2000
    4.2690   -0.5000    0.0000 O   0  0  0  0  0  0  0  0  0  0  0  0
    6.0010   -0.5000    0.0000 O   0  0  0  0  0  0  0  0  0  0  0  0
    4.2690   -3.5000    0.0000 O   0  0  0  0  0  0  0  0  0  0  0  0
    2.5369   -2.5000    0.0000 O   0  0  0  0  0  0  0  0  0  0  0  0
    6.0010   -2.5000    0.0000 O   0  0  0  0  0  0  0  0  0  0  0  0
    2.5369    0.5000    0.0000 O   0  0  0  0  0  0  0  0  0  0  0  0
    7.7331    0.5000    0.0000 O   0  0  0  0  0  0  0  0  0  0  0  0
    6.0010    2.5000    0.0000 O   0  0  0  0  0  0  0  0  0  0  0  0
    7.7331    3.5000    0.0000 O   0  0  0  0  0  0  0  0  0  0  0  0
    8.5991    2.0000    0.0000 O   0  0  0  0  0  0  0  0  0  0  0  0
    4.2690   -2.5000    0.0000 C   0  0  3  0  0  0  0  0  0  0  0  0
    3.4030   -2.0000    0.0000 C   0  0  1  0  0  0  0  0  0  0  0  0
    5.1350   -2.0000    0.0000 C   0  0  3  0  0  0  0  0  0  0  0  0
    3.4030   -1.0000    0.0000 C   0  0  3  0  0  0  0  0  0  0  0  0
    5.1350   -1.0000    0.0000 C   0  0  2  0  0  0  0  0  0  0  0  0
    2.5369   -0.5000    0.0000 C   0  0  0  0  0  0  0  0  0  0  0  0
    6.0010    0.5000    0.0000 C   0  0  0  0  0  0  0  0  0  0  0  0
    6.8671    1.0000    0.0000 C   0  0  2  0  0  0  0  0  0  0  0  0
    6.8671    2.0000    0.0000 C   0  0  2  0  0  0  0  0  0  0  0  0
    7.7331    2.5000    0.0000 C   0  0  0  0  0  0  0  0  0  0  0  0
    3.7320   -2.8100    0.0000 H   0  0  0  0  0  0  0  0  0  0  0  0
    3.4030   -2.6200    0.0000 H   0  0  0  0  0  0  0  0  0  0  0  0
    5.1350   -2.6200    0.0000 H   0  0  0  0  0  0  0  0  0  0  0  0
    3.4030   -0.3800    0.0000 H   0  0  0  0  0  0  0  0  0  0  0  0
    5.1350   -0.3800    0.0000 H   0  0  0  0  0  0  0  0  0  0  0  0
    1.9264   -0.3923    0.0000 H   0  0  0  0  0  0  0  0  0  0  0  0
    2.3249   -1.0826    0.0000 H   0  0  0  0  0  0  0  0  0  0  0  0
    5.7890    1.0826    0.0000 H   0  0  0  0  0  0  0  0  0  0  0  0
    5.3905    0.3923    0.0000 H   0  0  0  0  0  0  0  0  0  0  0  0
    6.8671    0.3800    0.0000 H   0  0  0  0  0  0  0  0  0  0  0  0
    3.7320   -3.8100    0.0000 H   0  0  0  0  0  0  0  0  0  0  0  0
    2.0000   -2.1900    0.0000 H   0  0  0  0  0  0  0  0  0  0  0  0
    6.5380   -2.1900    0.0000 H   0  0  0  0  0  0  0  0  0  0  0  0
    6.3301    1.6900    0.0000 H   0  0  0  0  0  0  0  0  0  0  0  0
    7.1962    2.8100    0.0000 H   0  0  0  0  0  0  0  0  0  0  0  0
    2.0000    0.8100    0.0000 H   0  0  0  0  0  0  0  0  0  0  0  0
    8.2700    0.8100    0.0000 H   0  0  0  0  0  0  0  0  0  0  0  0
    6.0010    3.1200    0.0000 H   0  0  0  0  0  0  0  0  0  0  0  0
    8.2700    3.8100    0.0000 H   0  0  0  0  0  0  0  0  0  0  0  0
    9.1360    2.3100    0.0000 H   0  0  0  0  0  0  0  0  0  0  0  0
  1 14  1  0  0  0  0
  1 15  1  0  0  0  0
 15  2  1  6  0  0  0
  2 17  1  0  0  0  0
  3 11  1  0  0  0  0
  3 31  1  0  0  0  0
 12  4  1  6  0  0  0
  4 32  1  0  0  0  0
  5 13  1  0  0  0  0
  5 33  1  0  0  0  0
  6 16  1  0  0  0  0
  6 36  1  0  0  0  0
 18  7  1  6  0  0  0
  7 37  1  0  0  0  0
 19  8  1  1  0  0  0
  8 38  1  0  0  0  0
  9 20  1  0  0  0  0
  9 39  1  0  0  0  0
 10 20  1  0  0  0  0
 10 40  1  0  0  0  0
 11 12  1  0  0  0  0
 11 13  1  0  0  0  0
 11 21  1  0  0  0  0
 12 14  1  0  0  0  0
 12 22  1  0  0  0  0
 13 15  1  0  0  0  0
 13 23  1  0  0  0  0
 14 16  1  0  0  0  0
 14 24  1  0  0  0  0
 15 25  1  0  0  0  0
 16 26  1  0  0  0  0
 16 27  1  0  0  0  0
 17 18  1  0  0  0  0
 17 28  1  0  0  0  0
 17 29  1  0  0  0  0
 18 19  1  0  0  0  0
 18 30  1  0  0  0  0
 19 20  1  0  0  0  0
 19 34  1  0  0  0  0
 20 35  1  0  0  0  0
M  END
> <PUBCHEM_COMPOUND_CID>
68216896

> <PUBCHEM_COMPOUND_CANONICALIZED>
1

> <PUBCHEM_CACTVS_COMPLEXITY>
287

> <PUBCHEM_CACTVS_HBOND_ACCEPTOR>
10

> <PUBCHEM_CACTVS_HBOND_DONOR>
8

> <PUBCHEM_CACTVS_ROTATABLE_BOND>
6

> <PUBCHEM_CACTVS_SUBSKEYS>
AAADceBwPAAAAAAAAAAAAAAAAAAAAAAAAAAkAAAAAAAAAAAAAAAAGgAACAAACBSwgAMACAAABgAAAAAAAAAAAAAAAAAAAAAAAAAREAIAAAAiQAAFAAAHAAHAYAwAAAAAAAAAAAAAAAAAAAAAAAAAAAAAAA==

> <PUBCHEM_IUPAC_OPENEYE_NAME>
(2R,3R)-4-[(2S,5S)-3,4,5-trihydroxy-6-(hydroxymethyl)tetrahydropyran-2-yl]oxybutane-1,1,2,3-tetrol

> <PUBCHEM_IUPAC_CAS_NAME>
(2R,3R)-4-[[(2S,5S)-3,4,5-trihydroxy-6-(hydroxymethyl)-2-oxanyl]oxy]butane-1,1,2,3-tetrol

> <PUBCHEM_IUPAC_NAME_MARKUP>
(2<I>R</I>,3<I>R</I>)-4-[(2<I>S</I>,5<I>S</I>)-3,4,5-trihydroxy-6-(hydroxymethyl)oxan-2-yl]oxybutane-1,1,2,3-tetrol

> <PUBCHEM_IUPAC_NAME>
(2R,3R)-4-[(2S,5S)-3,4,5-trihydroxy-6-(hydroxymethyl)oxan-2-yl]oxybutane-1,1,2,3-tetrol

> <PUBCHEM_IUPAC_SYSTEMATIC_NAME>
(2R,3R)-4-[(2S,5S)-6-(hydroxymethyl)-3,4,5-tris(oxidanyl)oxan-2-yl]oxybutane-1,1,2,3-tetrol

> <PUBCHEM_IUPAC_TRADITIONAL_NAME>
(2R,3R)-4-[(2S,5S)-3,4,5-trihydroxy-6-methylol-tetrahydropyran-2-yl]oxybutane-1,1,2,3-tetrol

> <PUBCHEM_IUPAC_INCHI>
InChI=1S/C10H20O10/c11-1-4-6(14)7(15)8(16)10(20-4)19-2-3(12)5(13)9(17)18/h3-18H,1-2H2/t3-,4?,5-,6-,7?,8?,10+/m1/s1

> <PUBCHEM_IUPAC_INCHIKEY>
GZCPCRZVOTUZQN-NVVZAQPYSA-N

> <PUBCHEM_XLOGP3_AA>
-4.5

> <PUBCHEM_EXACT_MASS>
300.10564683

> <PUBCHEM_MOLECULAR_FORMULA>
C10H20O10

> <PUBCHEM_MOLECULAR_WEIGHT>
300.26

> <PUBCHEM_OPENEYE_CAN_SMILES>
C(C1C(C(C(C(O1)OCC(C(C(O)O)O)O)O)O)O)O

> <PUBCHEM_OPENEYE_ISO_SMILES>
C(C1[C@H](C(C([C@H](O1)OC[C@H]([C@H](C(O)O)O)O)O)O)O)O

> <PUBCHEM_CACTVS_TPSA>
180

> <PUBCHEM_MONOISOTOPIC_WEIGHT>
300.10564683

> <PUBCHEM_TOTAL_CHARGE>
0

> <PUBCHEM_HEAVY_ATOM_COUNT>
20

> <PUBCHEM_ATOM_DEF_STEREO_COUNT>
4

> <PUBCHEM_ATOM_UDEF_STEREO_COUNT>
3

> <PUBCHEM_BOND_DEF_STEREO_COUNT>
0

> <PUBCHEM_BOND_UDEF_STEREO_COUNT>
0

> <PUBCHEM_ISOTOPIC_ATOM_COUNT>
0

> <PUBCHEM_COMPONENT_COUNT>
1

> <PUBCHEM_CACTVS_TAUTO_COUNT>
-1

> <PUBCHEM_COORDINATE_TYPE>
1
5
255

> <PUBCHEM_BONDANNOTATIONS>
14  16  3
15  2  6
11  3  3
12  4  6
13  5  3
18  7  6
19  8  5

$$$$
