 
  -OEChem-10192103272D

 26 26  0     1  0  0  0  0  0999 V2000
    6.8671   -0.0600    0.0000 O   0  0  0  0  0  0  0  0  0  0  0  0
    4.2690    1.4400    0.0000 O   0  0  0  0  0  0  0  0  0  0  0  0
    2.5369   -0.5600    0.0000 O   0  0  0  0  0  0  0  0  0  0  0  0
    6.0010    1.4400    0.0000 O   0  0  0  0  0  0  0  0  0  0  0  0
    3.4030    0.9400    0.0000 O   0  0  0  0  0  0  0  0  0  0  0  0
    5.1350   -0.0600    0.0000 C   0  0  1  0  0  0  0  0  0  0  0  0
    4.2690   -0.5600    0.0000 C   0  0  2  0  0  0  0  0  0  0  0  0
    6.0010   -0.5600    0.0000 C   0  0  1  0  0  0  0  0  0  0  0  0
    4.2690   -1.5600    0.0000 C   0  0  0  0  0  0  0  0  0  0  0  0
    6.0010   -1.5600    0.0000 C   0  0  0  0  0  0  0  0  0  0  0  0
    5.1350   -2.0600    0.0000 C   0  0  0  0  0  0  0  0  0  0  0  0
    5.1350    0.9400    0.0000 C   0  0  0  0  0  0  0  0  0  0  0  0
    3.4030   -0.0600    0.0000 C   0  0  0  0  0  0  0  0  0  0  0  0
    6.8671   -2.0600    0.0000 C   0  0  0  0  0  0  0  0  0  0  0  0
    5.6720    0.2500    0.0000 H   0  0  0  0  0  0  0  0  0  0  0  0
    4.2690    0.0600    0.0000 H   0  0  0  0  0  0  0  0  0  0  0  0
    6.5380   -0.8700    0.0000 H   0  0  0  0  0  0  0  0  0  0  0  0
    3.6584   -1.4523    0.0000 H   0  0  0  0  0  0  0  0  0  0  0  0
    4.0569   -2.1426    0.0000 H   0  0  0  0  0  0  0  0  0  0  0  0
    5.1350   -2.6800    0.0000 H   0  0  0  0  0  0  0  0  0  0  0  0
    6.5571   -2.5969    0.0000 H   0  0  0  0  0  0  0  0  0  0  0  0
    7.4040   -2.3700    0.0000 H   0  0  0  0  0  0  0  0  0  0  0  0
    7.1771   -1.5231    0.0000 H   0  0  0  0  0  0  0  0  0  0  0  0
    7.4040   -0.3700    0.0000 H   0  0  0  0  0  0  0  0  0  0  0  0
    4.2690    2.0600    0.0000 H   0  0  0  0  0  0  0  0  0  0  0  0
    2.0000   -0.2500    0.0000 H   0  0  0  0  0  0  0  0  0  0  0  0
  8  1  1  6  0  0  0
  1 24  1  0  0  0  0
  2 12  1  0  0  0  0
  2 25  1  0  0  0  0
  3 13  1  0  0  0  0
  3 26  1  0  0  0  0
  4 12  2  0  0  0  0
  5 13  2  0  0  0  0
  6  7  1  0  0  0  0
  6  8  1  0  0  0  0
  6 12  1  6  0  0  0
  6 15  1  0  0  0  0
  7  9  1  0  0  0  0
  7 13  1  6  0  0  0
  7 16  1  0  0  0  0
  8 10  1  0  0  0  0
  8 17  1  0  0  0  0
  9 11  1  0  0  0  0
  9 18  1  0  0  0  0
  9 19  1  0  0  0  0
 10 11  2  0  0  0  0
 10 14  1  0  0  0  0
 11 20  1  0  0  0  0
 14 21  1  0  0  0  0
 14 22  1  0  0  0  0
 14 23  1  0  0  0  0
M  END
> <PUBCHEM_COMPOUND_CID>
14668902

> <PUBCHEM_COMPOUND_CANONICALIZED>
1

> <PUBCHEM_CACTVS_COMPLEXITY>
294

> <PUBCHEM_CACTVS_HBOND_ACCEPTOR>
5

> <PUBCHEM_CACTVS_HBOND_DONOR>
3

> <PUBCHEM_CACTVS_ROTATABLE_BOND>
2

> <PUBCHEM_CACTVS_SUBSKEYS>
AAADccBwOAAAAAAAAAAAAAAAAAAAAAAAAAAgAAAAAAAAAAAAAAAAGgAACAAADRSggAICCAAAAgCIAiDSCAAAAAAgAAAACAEAAAgAFBYAAQAAUAAFoAAIEAPLyAAOgAAAAAAAAAAAAAAAAAAAAAAAAAAAAA==

> <PUBCHEM_IUPAC_OPENEYE_NAME>
(1S,2S,3S)-3-hydroxy-4-methyl-cyclohex-4-ene-1,2-dicarboxylic acid

> <PUBCHEM_IUPAC_CAS_NAME>
(1S,2S,3S)-3-hydroxy-4-methylcyclohex-4-ene-1,2-dicarboxylic acid

> <PUBCHEM_IUPAC_NAME_MARKUP>
(1<I>S</I>,2<I>S</I>,3<I>S</I>)-3-hydroxy-4-methylcyclohex-4-ene-1,2-dicarboxylic acid

> <PUBCHEM_IUPAC_NAME>
(1S,2S,3S)-3-hydroxy-4-methylcyclohex-4-ene-1,2-dicarboxylic acid

> <PUBCHEM_IUPAC_SYSTEMATIC_NAME>
(1S,2S,3S)-4-methyl-3-oxidanyl-cyclohex-4-ene-1,2-dicarboxylic acid

> <PUBCHEM_IUPAC_TRADITIONAL_NAME>
(1S,2S,3S)-3-hydroxy-4-methyl-cyclohex-4-ene-1,2-dicarboxylic acid

> <PUBCHEM_IUPAC_INCHI>
InChI=1S/C9H12O5/c1-4-2-3-5(8(11)12)6(7(4)10)9(13)14/h2,5-7,10H,3H2,1H3,(H,11,12)(H,13,14)/t5-,6-,7+/m0/s1

> <PUBCHEM_IUPAC_INCHIKEY>
CHLJYFLZQINUHO-LYFYHCNISA-N

> <PUBCHEM_XLOGP3_AA>
-0.2

> <PUBCHEM_EXACT_MASS>
200.06847348

> <PUBCHEM_MOLECULAR_FORMULA>
C9H12O5

> <PUBCHEM_MOLECULAR_WEIGHT>
200.19

> <PUBCHEM_OPENEYE_CAN_SMILES>
CC1=CCC(C(C1O)C(=O)O)C(=O)O

> <PUBCHEM_OPENEYE_ISO_SMILES>
CC1=CC[C@@H]([C@@H]([C@@H]1O)C(=O)O)C(=O)O

> <PUBCHEM_CACTVS_TPSA>
94.8

> <PUBCHEM_MONOISOTOPIC_WEIGHT>
200.06847348

> <PUBCHEM_TOTAL_CHARGE>
0

> <PUBCHEM_HEAVY_ATOM_COUNT>
14

> <PUBCHEM_ATOM_DEF_STEREO_COUNT>
3

> <PUBCHEM_ATOM_UDEF_STEREO_COUNT>
0

> <PUBCHEM_BOND_DEF_STEREO_COUNT>
0

> <PUBCHEM_BOND_UDEF_STEREO_COUNT>
0

> <PUBCHEM_ISOTOPIC_ATOM_COUNT>
0

> <PUBCHEM_COMPONENT_COUNT>
1

> <PUBCHEM_CACTVS_TAUTO_COUNT>
-1

> <PUBCHEM_COORDINATE_TYPE>
1
5
255

> <PUBCHEM_BONDANNOTATIONS>
8  1  6
6  12  6
7  13  6

$$$$
