 
  -OEChem-10192104232D

 59 60  0     0  0  0  0  0  0999 V2000
    3.7320   -2.7500    0.0000 O   0  0  0  0  0  0  0  0  0  0  0  0
    7.1962    3.2500    0.0000 O   0  0  0  0  0  0  0  0  0  0  0  0
    2.0000   -2.7500    0.0000 O   0  0  0  0  0  0  0  0  0  0  0  0
    6.3301    4.7500    0.0000 O   0  0  0  0  0  0  0  0  0  0  0  0
    2.8660   -1.2500    0.0000 O   0  0  0  0  0  0  0  0  0  0  0  0
    5.4641    3.2500    0.0000 O   0  0  0  0  0  0  0  0  0  0  0  0
    2.8660   -4.2500    0.0000 C   0  0  0  0  0  0  0  0  0  0  0  0
    8.0622    4.7500    0.0000 C   0  0  0  0  0  0  0  0  0  0  0  0
    2.0000   -4.7500    0.0000 C   0  0  0  0  0  0  0  0  0  0  0  0
    3.7320   -4.7500    0.0000 C   0  0  0  0  0  0  0  0  0  0  0  0
    8.9282    4.2500    0.0000 C   0  0  0  0  0  0  0  0  0  0  0  0
    8.0622    5.7500    0.0000 C   0  0  0  0  0  0  0  0  0  0  0  0
    2.0000   -5.7500    0.0000 C   0  0  0  0  0  0  0  0  0  0  0  0
    3.7320   -5.7500    0.0000 C   0  0  0  0  0  0  0  0  0  0  0  0
    9.7942    4.7500    0.0000 C   0  0  0  0  0  0  0  0  0  0  0  0
    8.9282    6.2500    0.0000 C   0  0  0  0  0  0  0  0  0  0  0  0
    2.8660   -6.2500    0.0000 C   0  0  0  0  0  0  0  0  0  0  0  0
    9.7942    5.7500    0.0000 C   0  0  0  0  0  0  0  0  0  0  0  0
    2.8660   -3.2500    0.0000 C   0  0  0  0  0  0  0  0  0  0  0  0
    7.1962    4.2500    0.0000 C   0  0  0  0  0  0  0  0  0  0  0  0
    5.4641    0.2500    0.0000 C   0  0  0  0  0  0  0  0  0  0  0  0
    4.5981   -0.2500    0.0000 C   0  0  0  0  0  0  0  0  0  0  0  0
    5.4641    1.2500    0.0000 C   0  0  0  0  0  0  0  0  0  0  0  0
    4.5981   -1.2500    0.0000 C   0  0  0  0  0  0  0  0  0  0  0  0
    6.3301    1.7500    0.0000 C   0  0  0  0  0  0  0  0  0  0  0  0
    3.7320   -1.7500    0.0000 C   0  0  0  0  0  0  0  0  0  0  0  0
    6.3301    2.7500    0.0000 C   0  0  0  0  0  0  0  0  0  0  0  0
    3.4030   -3.9400    0.0000 H   0  0  0  0  0  0  0  0  0  0  0  0
    8.0622    4.1300    0.0000 H   0  0  0  0  0  0  0  0  0  0  0  0
    1.7880   -4.1674    0.0000 H   0  0  0  0  0  0  0  0  0  0  0  0
    1.3894   -4.8577    0.0000 H   0  0  0  0  0  0  0  0  0  0  0  0
    4.3426   -4.8577    0.0000 H   0  0  0  0  0  0  0  0  0  0  0  0
    3.9441   -4.1674    0.0000 H   0  0  0  0  0  0  0  0  0  0  0  0
    8.5297    3.7750    0.0000 H   0  0  0  0  0  0  0  0  0  0  0  0
    9.3267    3.7750    0.0000 H   0  0  0  0  0  0  0  0  0  0  0  0
    7.8501    6.3326    0.0000 H   0  0  0  0  0  0  0  0  0  0  0  0
    7.4516    5.6423    0.0000 H   0  0  0  0  0  0  0  0  0  0  0  0
    1.3894   -5.6423    0.0000 H   0  0  0  0  0  0  0  0  0  0  0  0
    1.7880   -6.3326    0.0000 H   0  0  0  0  0  0  0  0  0  0  0  0
    3.9441   -6.3326    0.0000 H   0  0  0  0  0  0  0  0  0  0  0  0
    4.3426   -5.6423    0.0000 H   0  0  0  0  0  0  0  0  0  0  0  0
   10.0063    4.1674    0.0000 H   0  0  0  0  0  0  0  0  0  0  0  0
   10.4048    4.8577    0.0000 H   0  0  0  0  0  0  0  0  0  0  0  0
    9.3267    6.7250    0.0000 H   0  0  0  0  0  0  0  0  0  0  0  0
    8.5297    6.7250    0.0000 H   0  0  0  0  0  0  0  0  0  0  0  0
    2.4675   -6.7250    0.0000 H   0  0  0  0  0  0  0  0  0  0  0  0
    3.2646   -6.7250    0.0000 H   0  0  0  0  0  0  0  0  0  0  0  0
   10.4048    5.6423    0.0000 H   0  0  0  0  0  0  0  0  0  0  0  0
   10.0063    6.3326    0.0000 H   0  0  0  0  0  0  0  0  0  0  0  0
    5.6762   -0.3326    0.0000 H   0  0  0  0  0  0  0  0  0  0  0  0
    6.0747    0.3577    0.0000 H   0  0  0  0  0  0  0  0  0  0  0  0
    4.3860    0.3326    0.0000 H   0  0  0  0  0  0  0  0  0  0  0  0
    3.9875   -0.3577    0.0000 H   0  0  0  0  0  0  0  0  0  0  0  0
    5.2520    1.8326    0.0000 H   0  0  0  0  0  0  0  0  0  0  0  0
    4.8535    1.1423    0.0000 H   0  0  0  0  0  0  0  0  0  0  0  0
    4.8101   -1.8326    0.0000 H   0  0  0  0  0  0  0  0  0  0  0  0
    5.2087   -1.1423    0.0000 H   0  0  0  0  0  0  0  0  0  0  0  0
    6.5422    1.1674    0.0000 H   0  0  0  0  0  0  0  0  0  0  0  0
    6.9407    1.8577    0.0000 H   0  0  0  0  0  0  0  0  0  0  0  0
  1 19  1  0  0  0  0
  1 26  1  0  0  0  0
  2 20  1  0  0  0  0
  2 27  1  0  0  0  0
  3 19  2  0  0  0  0
  4 20  2  0  0  0  0
  5 26  2  0  0  0  0
  6 27  2  0  0  0  0
  7  9  1  0  0  0  0
  7 10  1  0  0  0  0
  7 19  1  0  0  0  0
  7 28  1  0  0  0  0
  8 11  1  0  0  0  0
  8 12  1  0  0  0  0
  8 20  1  0  0  0  0
  8 29  1  0  0  0  0
  9 13  1  0  0  0  0
  9 30  1  0  0  0  0
  9 31  1  0  0  0  0
 10 14  1  0  0  0  0
 10 32  1  0  0  0  0
 10 33  1  0  0  0  0
 11 15  1  0  0  0  0
 11 34  1  0  0  0  0
 11 35  1  0  0  0  0
 12 16  1  0  0  0  0
 12 36  1  0  0  0  0
 12 37  1  0  0  0  0
 13 17  1  0  0  0  0
 13 38  1  0  0  0  0
 13 39  1  0  0  0  0
 14 17  1  0  0  0  0
 14 40  1  0  0  0  0
 14 41  1  0  0  0  0
 15 18  1  0  0  0  0
 15 42  1  0  0  0  0
 15 43  1  0  0  0  0
 16 18  1  0  0  0  0
 16 44  1  0  0  0  0
 16 45  1  0  0  0  0
 17 46  1  0  0  0  0
 17 47  1  0  0  0  0
 18 48  1  0  0  0  0
 18 49  1  0  0  0  0
 21 22  1  0  0  0  0
 21 23  1  0  0  0  0
 21 50  1  0  0  0  0
 21 51  1  0  0  0  0
 22 24  1  0  0  0  0
 22 52  1  0  0  0  0
 22 53  1  0  0  0  0
 23 25  1  0  0  0  0
 23 54  1  0  0  0  0
 23 55  1  0  0  0  0
 24 26  1  0  0  0  0
 24 56  1  0  0  0  0
 24 57  1  0  0  0  0
 25 27  1  0  0  0  0
 25 58  1  0  0  0  0
 25 59  1  0  0  0  0
M  END
> <PUBCHEM_COMPOUND_CID>
122600193

> <PUBCHEM_COMPOUND_CANONICALIZED>
1

> <PUBCHEM_CACTVS_COMPLEXITY>
469

> <PUBCHEM_CACTVS_HBOND_ACCEPTOR>
6

> <PUBCHEM_CACTVS_HBOND_DONOR>
0

> <PUBCHEM_CACTVS_ROTATABLE_BOND>
12

> <PUBCHEM_CACTVS_SUBSKEYS>
AAADcfB4OAAAAAAAAAAAAAAAAAAAAAAAAAAwYAAAAAAAAAAAAAAAGgAAAAAADQCAgAAACAAABAAIAACQCAAAAAAAAAAAAAEAAAAAABIAAAACAAAEAAAAAAGIyCCOAAAAAAAAAAAAAAAAAAAAAAAAAAAAAA==

> <PUBCHEM_IUPAC_OPENEYE_NAME>
bis(cyclohexanecarbonyl) heptanedioate

> <PUBCHEM_IUPAC_CAS_NAME>
heptanedioic acid bis[cyclohexyl(oxo)methyl] ester

> <PUBCHEM_IUPAC_NAME_MARKUP>
bis(cyclohexanecarbonyl) heptanedioate

> <PUBCHEM_IUPAC_NAME>
bis(cyclohexanecarbonyl) heptanedioate

> <PUBCHEM_IUPAC_SYSTEMATIC_NAME>
bis(cyclohexylcarbonyl) heptanedioate

> <PUBCHEM_IUPAC_TRADITIONAL_NAME>
pimelic acid bis(cyclohexanecarbonyl) ester

> <PUBCHEM_IUPAC_INCHI>
InChI=1S/C21H32O6/c22-18(26-20(24)16-10-4-1-5-11-16)14-8-3-9-15-19(23)27-21(25)17-12-6-2-7-13-17/h16-17H,1-15H2

> <PUBCHEM_IUPAC_INCHIKEY>
JYTDUYSPLSZPOZ-UHFFFAOYSA-N

> <PUBCHEM_XLOGP3_AA>
4.9

> <PUBCHEM_EXACT_MASS>
380.21988874

> <PUBCHEM_MOLECULAR_FORMULA>
C21H32O6

> <PUBCHEM_MOLECULAR_WEIGHT>
380.5

> <PUBCHEM_OPENEYE_CAN_SMILES>
C1CCC(CC1)C(=O)OC(=O)CCCCCC(=O)OC(=O)C2CCCCC2

> <PUBCHEM_OPENEYE_ISO_SMILES>
C1CCC(CC1)C(=O)OC(=O)CCCCCC(=O)OC(=O)C2CCCCC2

> <PUBCHEM_CACTVS_TPSA>
86.7

> <PUBCHEM_MONOISOTOPIC_WEIGHT>
380.21988874

> <PUBCHEM_TOTAL_CHARGE>
0

> <PUBCHEM_HEAVY_ATOM_COUNT>
27

> <PUBCHEM_ATOM_DEF_STEREO_COUNT>
0

> <PUBCHEM_ATOM_UDEF_STEREO_COUNT>
0

> <PUBCHEM_BOND_DEF_STEREO_COUNT>
0

> <PUBCHEM_BOND_UDEF_STEREO_COUNT>
0

> <PUBCHEM_ISOTOPIC_ATOM_COUNT>
0

> <PUBCHEM_COMPONENT_COUNT>
1

> <PUBCHEM_CACTVS_TAUTO_COUNT>
-1

> <PUBCHEM_COORDINATE_TYPE>
1
5
255

$$$$
