 
  -OEChem-10192103552D

 36 35  0     1  0  0  0  0  0999 V2000
    6.5010   -1.0880    0.0000 P   0  0  3  0  0  0  0  0  0  0  0  0
    4.7690   -2.0880    0.0000 P   0  0  3  0  0  0  0  0  0  0  0  0
    6.1350   -2.4540    0.0000 O   0  0  0  0  0  0  0  0  0  0  0  0
    7.3671   -0.5880    0.0000 O   0  0  0  0  0  0  0  0  0  0  0  0
    3.9030   -2.5880    0.0000 O   0  0  0  0  0  0  0  0  0  0  0  0
    7.0010   -1.9540    0.0000 O   0  0  0  0  0  0  0  0  0  0  0  0
    4.2690   -1.2220    0.0000 O   0  0  0  0  0  0  0  0  0  0  0  0
    6.5010   -0.0880    0.0000 O   0  0  0  0  0  0  0  0  0  0  0  0
    4.7690   -3.0880    0.0000 O   0  0  0  0  0  0  0  0  0  0  0  0
    5.6350   -1.5880    0.0000 C   0  0  0  0  0  0  0  0  0  0  0  0
    5.1350   -0.7220    0.0000 C   0  0  0  0  0  0  0  0  0  0  0  0
    5.1350    0.2780    0.0000 C   0  0  0  0  0  0  0  0  0  0  0  0
    4.2690    0.7780    0.0000 C   0  0  0  0  0  0  0  0  0  0  0  0
    4.2690    1.7780    0.0000 C   0  0  0  0  0  0  0  0  0  0  0  0
    7.3671    0.4120    0.0000 C   0  0  0  0  0  0  0  0  0  0  0  0
    3.0369   -2.0880    0.0000 C   0  0  0  0  0  0  0  0  0  0  0  0
    3.4030    2.2780    0.0000 C   0  0  0  0  0  0  0  0  0  0  0  0
    2.5369    2.7780    0.0000 C   0  0  0  0  0  0  0  0  0  0  0  0
    4.5524   -0.5099    0.0000 H   0  0  0  0  0  0  0  0  0  0  0  0
    5.7339   -0.5615    0.0000 H   0  0  0  0  0  0  0  0  0  0  0  0
    5.7456    0.1704    0.0000 H   0  0  0  0  0  0  0  0  0  0  0  0
    5.3471    0.8606    0.0000 H   0  0  0  0  0  0  0  0  0  0  0  0
    3.6584    0.8857    0.0000 H   0  0  0  0  0  0  0  0  0  0  0  0
    4.0569    0.1954    0.0000 H   0  0  0  0  0  0  0  0  0  0  0  0
    6.1350   -3.0740    0.0000 H   0  0  0  0  0  0  0  0  0  0  0  0
    4.8796    1.6704    0.0000 H   0  0  0  0  0  0  0  0  0  0  0  0
    4.4810    2.3606    0.0000 H   0  0  0  0  0  0  0  0  0  0  0  0
    7.6210   -1.9540    0.0000 H   0  0  0  0  0  0  0  0  0  0  0  0
    3.6490   -1.2220    0.0000 H   0  0  0  0  0  0  0  0  0  0  0  0
    7.9871    0.4120    0.0000 H   0  0  0  0  0  0  0  0  0  0  0  0
    7.3671    1.0320    0.0000 H   0  0  0  0  0  0  0  0  0  0  0  0
    6.7471    0.4120    0.0000 H   0  0  0  0  0  0  0  0  0  0  0  0
    3.3469   -1.5511    0.0000 H   0  0  0  0  0  0  0  0  0  0  0  0
    2.5000   -1.7780    0.0000 H   0  0  0  0  0  0  0  0  0  0  0  0
    2.7269   -2.6250    0.0000 H   0  0  0  0  0  0  0  0  0  0  0  0
    2.0000    3.0880    0.0000 H   0  0  0  0  0  0  0  0  0  0  0  0
  1  4  1  0  0  0  0
  1  6  1  0  0  0  0
  1  8  2  0  0  0  0
  1 10  1  0  0  0  0
  2  5  1  0  0  0  0
  2  7  1  0  0  0  0
  2  9  2  0  0  0  0
  2 10  1  0  0  0  0
  3 10  1  0  0  0  0
  3 25  1  0  0  0  0
  4 15  1  0  0  0  0
  5 16  1  0  0  0  0
  6 28  1  0  0  0  0
  7 29  1  0  0  0  0
 10 11  1  0  0  0  0
 11 12  1  0  0  0  0
 11 19  1  0  0  0  0
 11 20  1  0  0  0  0
 12 13  1  0  0  0  0
 12 21  1  0  0  0  0
 12 22  1  0  0  0  0
 13 14  1  0  0  0  0
 13 23  1  0  0  0  0
 13 24  1  0  0  0  0
 14 17  1  0  0  0  0
 14 26  1  0  0  0  0
 14 27  1  0  0  0  0
 15 30  1  0  0  0  0
 15 31  1  0  0  0  0
 15 32  1  0  0  0  0
 16 33  1  0  0  0  0
 16 34  1  0  0  0  0
 16 35  1  0  0  0  0
 17 18  3  0  0  0  0
 18 36  1  0  0  0  0
M  END
> <PUBCHEM_COMPOUND_CID>
101894249

> <PUBCHEM_COMPOUND_CANONICALIZED>
1

> <PUBCHEM_CACTVS_COMPLEXITY>
386

> <PUBCHEM_CACTVS_HBOND_ACCEPTOR>
7

> <PUBCHEM_CACTVS_HBOND_DONOR>
3

> <PUBCHEM_CACTVS_ROTATABLE_BOND>
8

> <PUBCHEM_CACTVS_SUBSKEYS>
AAADceBwOAMAAAAAAAAAAAAAAAAAAAAAAAAAAAAAAAAAAAAAAAAAGggACCAACACAgAICAAAAAxBAWAAAAIgAAAAAAAAAAAAAAAAAAAIAAAAAQAAEAAAAAAGAQAAAAAAAAAAAAAAAAAAAAAAAAAAAAAAAAA==

> <PUBCHEM_IUPAC_OPENEYE_NAME>
[1-hydroxy-1-[hydroxy(methoxy)phosphoryl]hept-6-ynyl]-methoxy-phosphinic acid

> <PUBCHEM_IUPAC_CAS_NAME>
[1-hydroxy-1-[hydroxy(methoxy)phosphoryl]hept-6-ynyl]-methoxyphosphinic acid

> <PUBCHEM_IUPAC_NAME_MARKUP>
[1-hydroxy-1-[hydroxy(methoxy)phosphoryl]hept-6-ynyl]-methoxyphosphinic acid

> <PUBCHEM_IUPAC_NAME>
[1-hydroxy-1-[hydroxy(methoxy)phosphoryl]hept-6-ynyl]-methoxyphosphinic acid

> <PUBCHEM_IUPAC_SYSTEMATIC_NAME>
methoxy-[1-[methoxy(oxidanyl)phosphoryl]-1-oxidanyl-hept-6-ynyl]phosphinic acid

> <PUBCHEM_IUPAC_TRADITIONAL_NAME>
[1-hydroxy-1-[hydroxy(methoxy)phosphoryl]hept-6-ynyl]-methoxy-phosphinic acid

> <PUBCHEM_IUPAC_INCHI>
InChI=1S/C9H18O7P2/c1-4-5-6-7-8-9(10,17(11,12)15-2)18(13,14)16-3/h1,10H,5-8H2,2-3H3,(H,11,12)(H,13,14)

> <PUBCHEM_IUPAC_INCHIKEY>
PWDACRULZOZNFK-UHFFFAOYSA-N

> <PUBCHEM_XLOGP3_AA>
-1.1

> <PUBCHEM_EXACT_MASS>
300.05277690

> <PUBCHEM_MOLECULAR_FORMULA>
C9H18O7P2

> <PUBCHEM_MOLECULAR_WEIGHT>
300.18

> <PUBCHEM_OPENEYE_CAN_SMILES>
COP(=O)(C(CCCCC#C)(O)P(=O)(O)OC)O

> <PUBCHEM_OPENEYE_ISO_SMILES>
COP(=O)(C(CCCCC#C)(O)P(=O)(O)OC)O

> <PUBCHEM_CACTVS_TPSA>
113

> <PUBCHEM_MONOISOTOPIC_WEIGHT>
300.05277690

> <PUBCHEM_TOTAL_CHARGE>
0

> <PUBCHEM_HEAVY_ATOM_COUNT>
18

> <PUBCHEM_ATOM_DEF_STEREO_COUNT>
0

> <PUBCHEM_ATOM_UDEF_STEREO_COUNT>
0

> <PUBCHEM_BOND_DEF_STEREO_COUNT>
0

> <PUBCHEM_BOND_UDEF_STEREO_COUNT>
0

> <PUBCHEM_ISOTOPIC_ATOM_COUNT>
0

> <PUBCHEM_COMPONENT_COUNT>
1

> <PUBCHEM_CACTVS_TAUTO_COUNT>
-1

> <PUBCHEM_COORDINATE_TYPE>
1
5
255

$$$$
