 
  -OEChem-10192104172D

 28 28  0     1  0  0  0  0  0999 V2000
    5.5929   -0.7173    0.0000 O   0  0  0  0  0  0  0  0  0  0  0  0
    7.5961   -0.1264    0.0000 O   0  0  0  0  0  0  0  0  0  0  0  0
    5.9589    2.3215    0.0000 O   0  0  0  0  0  0  0  0  0  0  0  0
    2.5896   -0.1264    0.0000 O   0  0  0  0  0  0  0  0  0  0  0  0
    4.4118   -2.4399    0.0000 O   0  0  0  0  0  0  0  0  0  0  0  0
    4.2268    2.3215    0.0000 O   0  0  0  0  0  0  0  0  0  0  0  0
    3.1249    1.5209    0.0000 O   0  0  0  0  0  0  0  0  0  0  0  0
    7.0609    1.5209    0.0000 O   0  0  0  0  0  0  0  0  0  0  0  0
    3.0106   -1.4218    0.0000 O   0  0  0  0  0  0  0  0  0  0  0  0
    5.0929    0.8215    0.0000 C   0  0  3  0  0  0  0  0  0  0  0  0
    4.2839    0.2337    0.0000 C   0  0  3  0  0  0  0  0  0  0  0  0
    5.9019    0.2337    0.0000 C   0  0  3  0  0  0  0  0  0  0  0  0
    4.5929   -0.7173    0.0000 C   0  0  3  0  0  0  0  0  0  0  0  0
    5.0929    1.8215    0.0000 C   0  0  0  0  0  0  0  0  0  0  0  0
    3.3328    0.5427    0.0000 C   0  0  0  0  0  0  0  0  0  0  0  0
    6.8530    0.5427    0.0000 C   0  0  0  0  0  0  0  0  0  0  0  0
    4.0051   -1.5264    0.0000 C   0  0  0  0  0  0  0  0  0  0  0  0
    8.5472    0.1826    0.0000 C   0  0  0  0  0  0  0  0  0  0  0  0
    5.6453    1.1030    0.0000 H   0  0  0  0  0  0  0  0  0  0  0  0
    3.8454   -0.2047    0.0000 H   0  0  0  0  0  0  0  0  0  0  0  0
    6.3403   -0.2047    0.0000 H   0  0  0  0  0  0  0  0  0  0  0  0
    4.8744   -1.2698    0.0000 H   0  0  0  0  0  0  0  0  0  0  0  0
    5.9589    2.9415    0.0000 H   0  0  0  0  0  0  0  0  0  0  0  0
    2.0000    0.0652    0.0000 H   0  0  0  0  0  0  0  0  0  0  0  0
    4.0474   -2.9415    0.0000 H   0  0  0  0  0  0  0  0  0  0  0  0
    8.7387   -0.4070    0.0000 H   0  0  0  0  0  0  0  0  0  0  0  0
    9.1368    0.3742    0.0000 H   0  0  0  0  0  0  0  0  0  0  0  0
    8.3556    0.7723    0.0000 H   0  0  0  0  0  0  0  0  0  0  0  0
  1 12  1  0  0  0  0
  1 13  1  0  0  0  0
  2 16  1  0  0  0  0
  2 18  1  0  0  0  0
  3 14  1  0  0  0  0
  3 23  1  0  0  0  0
  4 15  1  0  0  0  0
  4 24  1  0  0  0  0
  5 17  1  0  0  0  0
  5 25  1  0  0  0  0
  6 14  2  0  0  0  0
  7 15  2  0  0  0  0
  8 16  2  0  0  0  0
  9 17  2  0  0  0  0
 10 11  1  0  0  0  0
 10 12  1  0  0  0  0
 10 14  1  0  0  0  0
 10 19  1  0  0  0  0
 11 13  1  0  0  0  0
 11 15  1  0  0  0  0
 11 20  1  0  0  0  0
 12 16  1  0  0  0  0
 12 21  1  0  0  0  0
 13 17  1  0  0  0  0
 13 22  1  0  0  0  0
 18 26  1  0  0  0  0
 18 27  1  0  0  0  0
 18 28  1  0  0  0  0
M  END
> <PUBCHEM_COMPOUND_CID>
53651566

> <PUBCHEM_COMPOUND_CANONICALIZED>
1

> <PUBCHEM_CACTVS_COMPLEXITY>
401

> <PUBCHEM_CACTVS_HBOND_ACCEPTOR>
9

> <PUBCHEM_CACTVS_HBOND_DONOR>
3

> <PUBCHEM_CACTVS_ROTATABLE_BOND>
5

> <PUBCHEM_CACTVS_SUBSKEYS>
AAADccBwPAAAAAAAAAAAAAAAAAAAASAAAAAAAAAAAAAAAAAAAAAAGgAACAAADRSggAICCAAABgAIAACQCAIAAAAAAAAAAAFAAAABABYAAAQCQAAFIAADAAHLbgxOgAAAAAAAAAAAAAAAAAAAAAAAAAAAAA==

> <PUBCHEM_IUPAC_OPENEYE_NAME>
5-methoxycarbonyltetrahydrofuran-2,3,4-tricarboxylic acid

> <PUBCHEM_IUPAC_CAS_NAME>
5-methoxycarbonyloxolane-2,3,4-tricarboxylic acid

> <PUBCHEM_IUPAC_NAME_MARKUP>
5-methoxycarbonyloxolane-2,3,4-tricarboxylic acid

> <PUBCHEM_IUPAC_NAME>
5-methoxycarbonyloxolane-2,3,4-tricarboxylic acid

> <PUBCHEM_IUPAC_SYSTEMATIC_NAME>
5-methoxycarbonyloxolane-2,3,4-tricarboxylic acid

> <PUBCHEM_IUPAC_TRADITIONAL_NAME>
5-carbomethoxytetrahydrofuran-2,3,4-tricarboxylic acid

> <PUBCHEM_IUPAC_INCHI>
InChI=1S/C9H10O9/c1-17-9(16)5-3(7(12)13)2(6(10)11)4(18-5)8(14)15/h2-5H,1H3,(H,10,11)(H,12,13)(H,14,15)

> <PUBCHEM_IUPAC_INCHIKEY>
ANADTRZNKYRGPJ-UHFFFAOYSA-N

> <PUBCHEM_XLOGP3_AA>
-1.5

> <PUBCHEM_EXACT_MASS>
262.03248189

> <PUBCHEM_MOLECULAR_FORMULA>
C9H10O9

> <PUBCHEM_MOLECULAR_WEIGHT>
262.17

> <PUBCHEM_OPENEYE_CAN_SMILES>
COC(=O)C1C(C(C(O1)C(=O)O)C(=O)O)C(=O)O

> <PUBCHEM_OPENEYE_ISO_SMILES>
COC(=O)C1C(C(C(O1)C(=O)O)C(=O)O)C(=O)O

> <PUBCHEM_CACTVS_TPSA>
147

> <PUBCHEM_MONOISOTOPIC_WEIGHT>
262.03248189

> <PUBCHEM_TOTAL_CHARGE>
0

> <PUBCHEM_HEAVY_ATOM_COUNT>
18

> <PUBCHEM_ATOM_DEF_STEREO_COUNT>
0

> <PUBCHEM_ATOM_UDEF_STEREO_COUNT>
4

> <PUBCHEM_BOND_DEF_STEREO_COUNT>
0

> <PUBCHEM_BOND_UDEF_STEREO_COUNT>
0

> <PUBCHEM_ISOTOPIC_ATOM_COUNT>
0

> <PUBCHEM_COMPONENT_COUNT>
1

> <PUBCHEM_CACTVS_TAUTO_COUNT>
-1

> <PUBCHEM_COORDINATE_TYPE>
1
5
255

> <PUBCHEM_BONDANNOTATIONS>
10  14  3
11  15  3
12  16  3
13  17  3

$$$$
