 
  -OEChem-10192104372D

 36 40  0     0  0  0  0  0  0999 V2000
    6.2984    2.4704    0.0000 O   0  0  0  0  0  0  0  0  0  0  0  0
    8.2255    2.3160    0.0000 O   0  0  0  0  0  0  0  0  0  0  0  0
    4.3712    2.3160    0.0000 O   0  0  0  0  0  0  0  0  0  0  0  0
   10.5967    0.5445    0.0000 O   0  0  0  0  0  0  0  0  0  0  0  0
    2.0000    0.5445    0.0000 O   0  0  0  0  0  0  0  0  0  0  0  0
    6.2984   -0.5296    0.0000 C   0  0  0  0  0  0  0  0  0  0  0  0
    6.5076   -1.5014    0.0000 C   0  0  0  0  0  0  0  0  0  0  0  0
    7.1644   -0.0296    0.0000 C   0  0  0  0  0  0  0  0  0  0  0  0
    5.4323   -0.0296    0.0000 C   0  0  0  0  0  0  0  0  0  0  0  0
    7.9014   -0.6966    0.0000 C   0  0  0  0  0  0  0  0  0  0  0  0
    4.6953   -0.6966    0.0000 C   0  0  0  0  0  0  0  0  0  0  0  0
    7.4963   -1.6044    0.0000 C   0  0  0  0  0  0  0  0  0  0  0  0
    5.1004   -1.6044    0.0000 C   0  0  0  0  0  0  0  0  0  0  0  0
    7.1644    0.9704    0.0000 C   0  0  0  0  0  0  0  0  0  0  0  0
    5.4323    0.9704    0.0000 C   0  0  0  0  0  0  0  0  0  0  0  0
    6.2984    1.4704    0.0000 C   0  0  0  0  0  0  0  0  0  0  0  0
    8.7847   -0.2538    0.0000 C   0  0  0  0  0  0  0  0  0  0  0  0
    3.8121   -0.2538    0.0000 C   0  0  0  0  0  0  0  0  0  0  0  0
    8.0863    1.3257    0.0000 C   0  0  0  0  0  0  0  0  0  0  0  0
    4.5104    1.3257    0.0000 C   0  0  0  0  0  0  0  0  0  0  0  0
    7.9963   -2.4704    0.0000 C   0  0  0  0  0  0  0  0  0  0  0  0
    4.6004   -2.4704    0.0000 C   0  0  0  0  0  0  0  0  0  0  0  0
    8.8746    0.7301    0.0000 C   0  0  0  0  0  0  0  0  0  0  0  0
    3.7221    0.7301    0.0000 C   0  0  0  0  0  0  0  0  0  0  0  0
    9.7892    1.1344    0.0000 C   0  0  0  0  0  0  0  0  0  0  0  0
    2.8075    1.1344    0.0000 C   0  0  0  0  0  0  0  0  0  0  0  0
    9.2968   -0.6032    0.0000 H   0  0  0  0  0  0  0  0  0  0  0  0
    3.2999   -0.6032    0.0000 H   0  0  0  0  0  0  0  0  0  0  0  0
    7.4594   -2.7804    0.0000 H   0  0  0  0  0  0  0  0  0  0  0  0
    8.3063   -3.0074    0.0000 H   0  0  0  0  0  0  0  0  0  0  0  0
    8.5332   -2.1604    0.0000 H   0  0  0  0  0  0  0  0  0  0  0  0
    4.0635   -2.1604    0.0000 H   0  0  0  0  0  0  0  0  0  0  0  0
    4.2904   -3.0074    0.0000 H   0  0  0  0  0  0  0  0  0  0  0  0
    5.1374   -2.7804    0.0000 H   0  0  0  0  0  0  0  0  0  0  0  0
    9.8557    1.7509    0.0000 H   0  0  0  0  0  0  0  0  0  0  0  0
    2.7411    1.7509    0.0000 H   0  0  0  0  0  0  0  0  0  0  0  0
  1 16  2  0  0  0  0
  2 19  2  0  0  0  0
  3 20  2  0  0  0  0
  4 25  2  0  0  0  0
  5 26  2  0  0  0  0
  6  7  2  0  0  0  0
  6  8  1  0  0  0  0
  6  9  1  0  0  0  0
  7 12  1  0  0  0  0
  7 13  1  0  0  0  0
  8 10  1  0  0  0  0
  8 14  2  0  0  0  0
  9 11  1  0  0  0  0
  9 15  2  0  0  0  0
 10 12  2  0  0  0  0
 10 17  1  0  0  0  0
 11 13  2  0  0  0  0
 11 18  1  0  0  0  0
 12 21  1  0  0  0  0
 13 22  1  0  0  0  0
 14 16  1  0  0  0  0
 14 19  1  0  0  0  0
 15 16  1  0  0  0  0
 15 20  1  0  0  0  0
 17 23  2  0  0  0  0
 17 27  1  0  0  0  0
 18 24  2  0  0  0  0
 18 28  1  0  0  0  0
 19 23  1  0  0  0  0
 20 24  1  0  0  0  0
 21 29  1  0  0  0  0
 21 30  1  0  0  0  0
 21 31  1  0  0  0  0
 22 32  1  0  0  0  0
 22 33  1  0  0  0  0
 22 34  1  0  0  0  0
 23 25  1  0  0  0  0
 24 26  1  0  0  0  0
 25 35  1  0  0  0  0
 26 36  1  0  0  0  0
M  END
> <PUBCHEM_COMPOUND_CID>
88860671

> <PUBCHEM_COMPOUND_CANONICALIZED>
1

> <PUBCHEM_CACTVS_COMPLEXITY>
1110

> <PUBCHEM_CACTVS_HBOND_ACCEPTOR>
5

> <PUBCHEM_CACTVS_HBOND_DONOR>
0

> <PUBCHEM_CACTVS_ROTATABLE_BOND>
2

> <PUBCHEM_CACTVS_SUBSKEYS>
AAADccB4OAAAAAAAAAAAAAAAAAAAAQIAAAAgQIAAAAAQAECAAAAAGgAAAAAADASggAICAAAAAACIAqhSgAAAAAAgAAAACAEAAEgIABIIAQAAAAAAgAAIgYMIioCgAAAAAAAAAAAAAAAAAAAAAAAAAAAAAA==

> <PUBCHEM_IUPAC_OPENEYE_NAME>
6,8-dimethyl-2,12,17-trioxo-pentacyclo[11.3.1.05,16.07,15.09,14]heptadeca-1(16),3,5,7(15),8,10,13-heptaene-3,11-dicarbaldehyde

> <PUBCHEM_IUPAC_CAS_NAME>
6,8-dimethyl-2,12,17-trioxopentacyclo[11.3.1.05,16.07,15.09,14]heptadeca-1(16),3,5,7(15),8,10,13-heptaene-3,11-dicarboxaldehyde

> <PUBCHEM_IUPAC_NAME_MARKUP>
6,8-dimethyl-2,12,17-trioxopentacyclo[11.3.1.0<SUP>5,16</SUP>.0<SUP>7,15</SUP>.0<SUP>9,14</SUP>]heptadeca-1(16),3,5,7(15),8,10,13-heptaene-3,11-dicarbaldehyde

> <PUBCHEM_IUPAC_NAME>
6,8-dimethyl-2,12,17-trioxopentacyclo[11.3.1.05,16.07,15.09,14]heptadeca-1(16),3,5,7(15),8,10,13-heptaene-3,11-dicarbaldehyde

> <PUBCHEM_IUPAC_SYSTEMATIC_NAME>
6,8-dimethyl-2,12,17-tris(oxidanylidene)pentacyclo[11.3.1.05,16.07,15.09,14]heptadeca-1(16),3,5,7(15),8,10,13-heptaene-3,11-dicarbaldehyde

> <PUBCHEM_IUPAC_TRADITIONAL_NAME>
2,12,17-triketo-6,8-dimethyl-pentacyclo[11.3.1.05,16.07,15.09,14]heptadeca-1(16),3,5,7(15),8,10,13-heptaene-3,11-dicarbaldehyde

> <PUBCHEM_IUPAC_INCHI>
InChI=1S/C21H10O5/c1-7-11-3-9(5-22)19(24)17-14(11)16-13(7)8(2)12-4-10(6-23)20(25)18(15(12)16)21(17)26/h3-6H,1-2H3

> <PUBCHEM_IUPAC_INCHIKEY>
KVNRINARXSOYLB-UHFFFAOYSA-N

> <PUBCHEM_XLOGP3_AA>
-0.5

> <PUBCHEM_EXACT_MASS>
342.05282342

> <PUBCHEM_MOLECULAR_FORMULA>
C21H10O5

> <PUBCHEM_MOLECULAR_WEIGHT>
342.3

> <PUBCHEM_OPENEYE_CAN_SMILES>
CC1=C2C=C(C(=O)C3=C2C4=C1C(=C5C4=C(C3=O)C(=O)C(=C5)C=O)C)C=O

> <PUBCHEM_OPENEYE_ISO_SMILES>
CC1=C2C=C(C(=O)C3=C2C4=C1C(=C5C4=C(C3=O)C(=O)C(=C5)C=O)C)C=O

> <PUBCHEM_CACTVS_TPSA>
85.4

> <PUBCHEM_MONOISOTOPIC_WEIGHT>
342.05282342

> <PUBCHEM_TOTAL_CHARGE>
0

> <PUBCHEM_HEAVY_ATOM_COUNT>
26

> <PUBCHEM_ATOM_DEF_STEREO_COUNT>
0

> <PUBCHEM_ATOM_UDEF_STEREO_COUNT>
0

> <PUBCHEM_BOND_DEF_STEREO_COUNT>
0

> <PUBCHEM_BOND_UDEF_STEREO_COUNT>
0

> <PUBCHEM_ISOTOPIC_ATOM_COUNT>
0

> <PUBCHEM_COMPONENT_COUNT>
1

> <PUBCHEM_CACTVS_TAUTO_COUNT>
-1

> <PUBCHEM_COORDINATE_TYPE>
1
5
255

> <PUBCHEM_BONDANNOTATIONS>
10  12  8
10  17  8
11  13  8
11  18  8
14  16  8
14  19  8
15  16  8
15  20  8
17  23  8
18  24  8
19  23  8
20  24  8
6  8  8
6  9  8
7  12  8
7  13  8
8  10  8
8  14  8
9  11  8
9  15  8

$$$$
