 
  -OEChem-10192103352D

 56 57  0     1  0  0  0  0  0999 V2000
    7.1733   -2.0631    0.0000 P   0  0  3  0  0  0  0  0  0  0  0  0
    5.3122    0.4014    0.0000 O   0  0  0  0  0  0  0  0  0  0  0  0
    2.7431    0.7104    0.0000 O   0  0  0  0  0  0  0  0  0  0  0  0
    3.4154   -1.3586    0.0000 O   0  0  0  0  0  0  0  0  0  0  0  0
    6.5855   -1.2541    0.0000 O   0  0  0  0  0  0  0  0  0  0  0  0
    7.7611   -2.8722    0.0000 O   0  0  0  0  0  0  0  0  0  0  0  0
    6.2353    1.9892    0.0000 O   0  0  0  0  0  0  0  0  0  0  0  0
    7.9823   -1.4754    0.0000 O   0  0  0  0  0  0  0  0  0  0  0  0
    6.3643   -2.6509    0.0000 O   0  0  0  0  0  0  0  0  0  0  0  0
   10.3379   -3.4721    0.0000 O   0  0  0  0  0  0  0  0  0  0  0  0
   10.5190   -5.1947    0.0000 O   0  0  0  0  0  0  0  0  0  0  0  0
    4.5032    1.9892    0.0000 N   0  0  0  0  0  0  0  0  0  0  0  0
    5.3692    3.4892    0.0000 N   0  0  0  0  0  0  0  0  0  0  0  0
    4.5032    4.9892    0.0000 N   0  0  0  0  0  0  0  0  0  0  0  0
    3.6942    0.4014    0.0000 C   0  0  2  0  0  0  0  0  0  0  0  0
    4.0032   -0.5496    0.0000 C   0  0  1  0  0  0  0  0  0  0  0  0
    5.0032   -0.5496    0.0000 C   0  0  1  0  0  0  0  0  0  0  0  0
    4.5032    0.9892    0.0000 C   0  0  1  0  0  0  0  0  0  0  0  0
    5.5910   -1.3586    0.0000 C   0  0  0  0  0  0  0  0  0  0  0  0
    3.6372    2.4892    0.0000 C   0  0  0  0  0  0  0  0  0  0  0  0
    5.3692    2.4892    0.0000 C   0  0  0  0  0  0  0  0  0  0  0  0
    2.0000    0.0413    0.0000 C   0  0  0  0  0  0  0  0  0  0  0  0
    3.6372    3.4892    0.0000 C   0  0  0  0  0  0  0  0  0  0  0  0
    4.5032    3.9892    0.0000 C   0  0  0  0  0  0  0  0  0  0  0  0
    8.7556   -2.7676    0.0000 C   0  0  0  0  0  0  0  0  0  0  0  0
    9.3434   -3.5766    0.0000 C   0  0  3  0  0  0  0  0  0  0  0  0
    8.9367   -4.4902    0.0000 C   0  0  0  0  0  0  0  0  0  0  0  0
    9.5244   -5.2992    0.0000 C   0  0  0  0  0  0  0  0  0  0  0  0
   10.9257   -4.2811    0.0000 C   0  0  0  0  0  0  0  0  0  0  0  0
   11.9202   -4.1766    0.0000 C   0  0  0  0  0  0  0  0  0  0  0  0
    3.2558   -0.0370    0.0000 H   0  0  0  0  0  0  0  0  0  0  0  0
    3.3908   -0.4526    0.0000 H   0  0  0  0  0  0  0  0  0  0  0  0
    5.6156   -0.4526    0.0000 H   0  0  0  0  0  0  0  0  0  0  0  0
    3.9508    1.2707    0.0000 H   0  0  0  0  0  0  0  0  0  0  0  0
    5.0338   -1.6304    0.0000 H   0  0  0  0  0  0  0  0  0  0  0  0
    5.7619   -1.9546    0.0000 H   0  0  0  0  0  0  0  0  0  0  0  0
    3.6676   -1.9250    0.0000 H   0  0  0  0  0  0  0  0  0  0  0  0
    3.1003    2.1792    0.0000 H   0  0  0  0  0  0  0  0  0  0  0  0
    1.5851    0.5021    0.0000 H   0  0  0  0  0  0  0  0  0  0  0  0
    1.5392   -0.3736    0.0000 H   0  0  0  0  0  0  0  0  0  0  0  0
    2.4149   -0.4194    0.0000 H   0  0  0  0  0  0  0  0  0  0  0  0
    3.1003    3.7992    0.0000 H   0  0  0  0  0  0  0  0  0  0  0  0
    9.3129   -2.4958    0.0000 H   0  0  0  0  0  0  0  0  0  0  0  0
    8.5847   -2.1716    0.0000 H   0  0  0  0  0  0  0  0  0  0  0  0
    9.7078   -4.0782    0.0000 H   0  0  0  0  0  0  0  0  0  0  0  0
    8.4227   -4.1435    0.0000 H   0  0  0  0  0  0  0  0  0  0  0  0
    8.5060   -4.9362    0.0000 H   0  0  0  0  0  0  0  0  0  0  0  0
    7.9175   -0.8588    0.0000 H   0  0  0  0  0  0  0  0  0  0  0  0
    3.9663    5.2992    0.0000 H   0  0  0  0  0  0  0  0  0  0  0  0
    5.0402    5.2992    0.0000 H   0  0  0  0  0  0  0  0  0  0  0  0
    9.0229   -5.6636    0.0000 H   0  0  0  0  0  0  0  0  0  0  0  0
    9.8889   -5.8008    0.0000 H   0  0  0  0  0  0  0  0  0  0  0  0
   10.0260   -4.9348    0.0000 H   0  0  0  0  0  0  0  0  0  0  0  0
   11.9850   -4.7932    0.0000 H   0  0  0  0  0  0  0  0  0  0  0  0
   12.5368   -4.1118    0.0000 H   0  0  0  0  0  0  0  0  0  0  0  0
   11.8554   -3.5600    0.0000 H   0  0  0  0  0  0  0  0  0  0  0  0
  1  5  1  0  0  0  0
  1  6  1  0  0  0  0
  1  8  1  0  0  0  0
  1  9  2  0  0  0  0
  2 17  1  0  0  0  0
  2 18  1  0  0  0  0
 15  3  1  1  0  0  0
  3 22  1  0  0  0  0
 16  4  1  1  0  0  0
  4 37  1  0  0  0  0
  5 19  1  0  0  0  0
  6 25  1  0  0  0  0
  7 21  2  0  0  0  0
  8 48  1  0  0  0  0
 10 26  1  0  0  0  0
 10 29  1  0  0  0  0
 11 29  2  0  0  0  0
 18 12  1  6  0  0  0
 12 20  1  0  0  0  0
 12 21  1  0  0  0  0
 13 21  1  0  0  0  0
 13 24  2  0  0  0  0
 14 24  1  0  0  0  0
 14 49  1  0  0  0  0
 14 50  1  0  0  0  0
 15 16  1  0  0  0  0
 15 18  1  0  0  0  0
 15 31  1  0  0  0  0
 16 17  1  0  0  0  0
 16 32  1  0  0  0  0
 17 19  1  6  0  0  0
 17 33  1  0  0  0  0
 18 34  1  0  0  0  0
 19 35  1  0  0  0  0
 19 36  1  0  0  0  0
 20 23  2  0  0  0  0
 20 38  1  0  0  0  0
 22 39  1  0  0  0  0
 22 40  1  0  0  0  0
 22 41  1  0  0  0  0
 23 24  1  0  0  0  0
 23 42  1  0  0  0  0
 25 26  1  0  0  0  0
 25 43  1  0  0  0  0
 25 44  1  0  0  0  0
 26 27  1  0  0  0  0
 26 45  1  0  0  0  0
 27 28  1  0  0  0  0
 27 46  1  0  0  0  0
 27 47  1  0  0  0  0
 28 51  1  0  0  0  0
 28 52  1  0  0  0  0
 28 53  1  0  0  0  0
 29 30  1  0  0  0  0
 30 54  1  0  0  0  0
 30 55  1  0  0  0  0
 30 56  1  0  0  0  0
M  END
> <PUBCHEM_COMPOUND_CID>
68064545

> <PUBCHEM_COMPOUND_CANONICALIZED>
1

> <PUBCHEM_CACTVS_COMPLEXITY>
745

> <PUBCHEM_CACTVS_HBOND_ACCEPTOR>
10

> <PUBCHEM_CACTVS_HBOND_DONOR>
3

> <PUBCHEM_CACTVS_ROTATABLE_BOND>
11

> <PUBCHEM_CACTVS_SUBSKEYS>
AAADceB7PAIAAAAAAAAAAAAAAAAAASAAAAAgAAAAAAAAAAAAAAAAHgAQCCAACBThgAYDCANABxCoQCL2fICAAAEAAgAIAAAYABCDEAIAgAAPQAAHFgITAADwMAIAAAAAAAAAAAAAAAAAAAAAAAAAAAAAAA==

> <PUBCHEM_IUPAC_OPENEYE_NAME>
1-[[[(2R,3R,4R,5R)-5-(4-amino-2-oxo-pyrimidin-1-yl)-3-hydroxy-4-methoxy-tetrahydrofuran-2-yl]methoxy-hydroxy-phosphoryl]oxymethyl]propyl acetate

> <PUBCHEM_IUPAC_CAS_NAME>
acetic acid 1-[[(2R,3R,4R,5R)-5-(4-amino-2-oxo-1-pyrimidinyl)-3-hydroxy-4-methoxy-2-oxolanyl]methoxy-hydroxyphosphoryl]oxybutan-2-yl ester

> <PUBCHEM_IUPAC_NAME_MARKUP>
1-[[(2<I>R</I>,3<I>R</I>,4<I>R</I>,5<I>R</I>)-5-(4-amino-2-oxopyrimidin-1-yl)-3-hydroxy-4-methoxyoxolan-2-yl]methoxy-hydroxyphosphoryl]oxybutan-2-yl acetate

> <PUBCHEM_IUPAC_NAME>
1-[[(2R,3R,4R,5R)-5-(4-amino-2-oxopyrimidin-1-yl)-3-hydroxy-4-methoxyoxolan-2-yl]methoxy-hydroxyphosphoryl]oxybutan-2-yl acetate

> <PUBCHEM_IUPAC_SYSTEMATIC_NAME>
1-[[(2R,3R,4R,5R)-5-(4-azanyl-2-oxidanylidene-pyrimidin-1-yl)-4-methoxy-3-oxidanyl-oxolan-2-yl]methoxy-oxidanyl-phosphoryl]oxybutan-2-yl ethanoate

> <PUBCHEM_IUPAC_TRADITIONAL_NAME>
acetic acid 1-[[[(2R,3R,4R,5R)-5-(4-amino-2-keto-pyrimidin-1-yl)-3-hydroxy-4-methoxy-tetrahydrofuran-2-yl]methoxy-hydroxy-phosphoryl]oxymethyl]propyl ester

> <PUBCHEM_IUPAC_INCHI>
InChI=1S/C16H26N3O10P/c1-4-10(28-9(2)20)7-26-30(23,24)27-8-11-13(21)14(25-3)15(29-11)19-6-5-12(17)18-16(19)22/h5-6,10-11,13-15,21H,4,7-8H2,1-3H3,(H,23,24)(H2,17,18,22)/t10?,11-,13-,14-,15-/m1/s1

> <PUBCHEM_IUPAC_INCHIKEY>
FITYXGADSPIQQM-BPWKVOTDSA-N

> <PUBCHEM_XLOGP3_AA>
-2.4

> <PUBCHEM_EXACT_MASS>
451.13558103

> <PUBCHEM_MOLECULAR_FORMULA>
C16H26N3O10P

> <PUBCHEM_MOLECULAR_WEIGHT>
451.37

> <PUBCHEM_OPENEYE_CAN_SMILES>
CCC(COP(=O)(O)OCC1C(C(C(O1)N2C=CC(=NC2=O)N)OC)O)OC(=O)C

> <PUBCHEM_OPENEYE_ISO_SMILES>
CCC(COP(=O)(O)OC[C@@H]1[C@H]([C@H]([C@@H](O1)N2C=CC(=NC2=O)N)OC)O)OC(=O)C

> <PUBCHEM_CACTVS_TPSA>
179

> <PUBCHEM_MONOISOTOPIC_WEIGHT>
451.13558103

> <PUBCHEM_TOTAL_CHARGE>
0

> <PUBCHEM_HEAVY_ATOM_COUNT>
30

> <PUBCHEM_ATOM_DEF_STEREO_COUNT>
4

> <PUBCHEM_ATOM_UDEF_STEREO_COUNT>
1

> <PUBCHEM_BOND_DEF_STEREO_COUNT>
0

> <PUBCHEM_BOND_UDEF_STEREO_COUNT>
0

> <PUBCHEM_ISOTOPIC_ATOM_COUNT>
0

> <PUBCHEM_COMPONENT_COUNT>
1

> <PUBCHEM_CACTVS_TAUTO_COUNT>
-1

> <PUBCHEM_COORDINATE_TYPE>
1
5
255

> <PUBCHEM_BONDANNOTATIONS>
18  12  6
12  20  8
12  21  8
13  21  8
13  24  8
17  19  6
20  23  8
23  24  8
26  27  3
15  3  5
16  4  5

$$$$
