 
  -OEChem-10192104012D

 43 43  0     1  0  0  0  0  0999 V2000
    8.5472   -2.7598    0.0000 O   0  0  0  0  0  0  0  0  0  0  0  0
    5.6993   -4.8289    0.0000 O   0  0  0  0  0  0  0  0  0  0  0  0
    6.7871    0.5189    0.0000 O   0  0  0  0  0  0  0  0  0  0  0  0
    2.5896   -3.7891    0.0000 O   0  0  0  0  0  0  0  0  0  0  0  0
    3.1249   -2.1418    0.0000 O   0  0  0  0  0  0  0  0  0  0  0  0
   10.2512    4.5189    0.0000 O   0  0  0  0  0  0  0  0  0  0  0  0
   11.1172    3.0189    0.0000 O   0  0  0  0  0  0  0  0  0  0  0  0
    7.5961   -3.0689    0.0000 C   0  0  3  0  0  0  0  0  0  0  0  0
    6.7871   -2.4811    0.0000 C   0  0  0  0  0  0  0  0  0  0  0  0
    5.9781   -3.0689    0.0000 C   0  0  0  0  0  0  0  0  0  0  0  0
    7.2871   -4.0199    0.0000 C   0  0  0  0  0  0  0  0  0  0  0  0
    6.2871   -4.0199    0.0000 C   0  0  0  0  0  0  0  0  0  0  0  0
    5.0270   -2.7598    0.0000 C   0  0  0  0  0  0  0  0  0  0  0  0
    6.7871   -1.4811    0.0000 C   0  0  0  0  0  0  0  0  0  0  0  0
    4.2839   -3.4290    0.0000 C   0  0  0  0  0  0  0  0  0  0  0  0
    8.5191    1.5189    0.0000 C   0  0  0  0  0  0  0  0  0  0  0  0
    8.5191    0.5189    0.0000 C   0  0  0  0  0  0  0  0  0  0  0  0
    9.3852    2.0189    0.0000 C   0  0  0  0  0  0  0  0  0  0  0  0
    7.6531   -0.9811    0.0000 C   0  0  0  0  0  0  0  0  0  0  0  0
    7.6531    0.0189    0.0000 C   0  0  0  0  0  0  0  0  0  0  0  0
    9.3852    3.0189    0.0000 C   0  0  0  0  0  0  0  0  0  0  0  0
    3.3328   -3.1199    0.0000 C   0  0  0  0  0  0  0  0  0  0  0  0
   10.2512    3.5189    0.0000 C   0  0  0  0  0  0  0  0  0  0  0  0
    7.6931   -2.4565    0.0000 H   0  0  0  0  0  0  0  0  0  0  0  0
    7.2223   -4.6365    0.0000 H   0  0  0  0  0  0  0  0  0  0  0  0
    7.8935   -4.1488    0.0000 H   0  0  0  0  0  0  0  0  0  0  0  0
    5.3181   -2.2124    0.0000 H   0  0  0  0  0  0  0  0  0  0  0  0
    4.5384   -2.3781    0.0000 H   0  0  0  0  0  0  0  0  0  0  0  0
    6.2501   -1.1711    0.0000 H   0  0  0  0  0  0  0  0  0  0  0  0
    3.9928   -3.9764    0.0000 H   0  0  0  0  0  0  0  0  0  0  0  0
    4.7724   -3.8107    0.0000 H   0  0  0  0  0  0  0  0  0  0  0  0
    8.3071    2.1015    0.0000 H   0  0  0  0  0  0  0  0  0  0  0  0
    7.9086    1.4113    0.0000 H   0  0  0  0  0  0  0  0  0  0  0  0
    8.7312   -0.0637    0.0000 H   0  0  0  0  0  0  0  0  0  0  0  0
    9.1297    0.6266    0.0000 H   0  0  0  0  0  0  0  0  0  0  0  0
    9.5972    1.4363    0.0000 H   0  0  0  0  0  0  0  0  0  0  0  0
    9.9957    2.1266    0.0000 H   0  0  0  0  0  0  0  0  0  0  0  0
    8.1900   -1.2911    0.0000 H   0  0  0  0  0  0  0  0  0  0  0  0
    9.0079   -3.1747    0.0000 H   0  0  0  0  0  0  0  0  0  0  0  0
    9.1731    3.6015    0.0000 H   0  0  0  0  0  0  0  0  0  0  0  0
    8.7746    2.9113    0.0000 H   0  0  0  0  0  0  0  0  0  0  0  0
    2.0000   -3.5975    0.0000 H   0  0  0  0  0  0  0  0  0  0  0  0
   10.7881    4.8289    0.0000 H   0  0  0  0  0  0  0  0  0  0  0  0
  1  8  1  0  0  0  0
  1 39  1  0  0  0  0
  2 12  2  0  0  0  0
  3 20  2  0  0  0  0
  4 22  1  0  0  0  0
  4 42  1  0  0  0  0
  5 22  2  0  0  0  0
  6 23  1  0  0  0  0
  6 43  1  0  0  0  0
  7 23  2  0  0  0  0
  8  9  1  0  0  0  0
  8 11  1  0  0  0  0
  8 24  1  0  0  0  0
  9 10  2  0  0  0  0
  9 14  1  0  0  0  0
 10 12  1  0  0  0  0
 10 13  1  0  0  0  0
 11 12  1  0  0  0  0
 11 25  1  0  0  0  0
 11 26  1  0  0  0  0
 13 15  1  0  0  0  0
 13 27  1  0  0  0  0
 13 28  1  0  0  0  0
 14 19  2  0  0  0  0
 14 29  1  0  0  0  0
 15 22  1  0  0  0  0
 15 30  1  0  0  0  0
 15 31  1  0  0  0  0
 16 17  1  0  0  0  0
 16 18  1  0  0  0  0
 16 32  1  0  0  0  0
 16 33  1  0  0  0  0
 17 20  1  0  0  0  0
 17 34  1  0  0  0  0
 17 35  1  0  0  0  0
 18 21  1  0  0  0  0
 18 36  1  0  0  0  0
 18 37  1  0  0  0  0
 19 20  1  0  0  0  0
 19 38  1  0  0  0  0
 21 23  1  0  0  0  0
 21 40  1  0  0  0  0
 21 41  1  0  0  0  0
M  END
> <PUBCHEM_COMPOUND_CID>
21680687

> <PUBCHEM_COMPOUND_CANONICALIZED>
1

> <PUBCHEM_CACTVS_COMPLEXITY>
557

> <PUBCHEM_CACTVS_HBOND_ACCEPTOR>
7

> <PUBCHEM_CACTVS_HBOND_DONOR>
3

> <PUBCHEM_CACTVS_ROTATABLE_BOND>
10

> <PUBCHEM_CACTVS_SUBSKEYS>
AAADceB4OAAAAAAAAAAAAAAAAAAAAQAAAAAAAAAAAAAAAAAAAAAAGgAACAAADBSggAIACAAAAgCIAqDSCAAAAAAgAAAICAEAAEgIFBYAAAAAUAAE4AAIkYOIzqCgAAAAAAAAAAAAAAAAAAAAAAAAAAAAAA==

> <PUBCHEM_IUPAC_OPENEYE_NAME>
(E)-8-[2-(2-carboxyethyl)-5-hydroxy-3-oxo-cyclopenten-1-yl]-6-oxo-oct-7-enoic acid

> <PUBCHEM_IUPAC_CAS_NAME>
(E)-8-[2-(2-carboxyethyl)-5-hydroxy-3-oxo-1-cyclopentenyl]-6-oxo-7-octenoic acid

> <PUBCHEM_IUPAC_NAME_MARKUP>
(<I>E</I>)-8-[2-(2-carboxyethyl)-5-hydroxy-3-oxocyclopenten-1-yl]-6-oxooct-7-enoic acid

> <PUBCHEM_IUPAC_NAME>
(E)-8-[2-(2-carboxyethyl)-5-hydroxy-3-oxocyclopenten-1-yl]-6-oxooct-7-enoic acid

> <PUBCHEM_IUPAC_SYSTEMATIC_NAME>
(E)-8-[2-(3-hydroxy-3-oxopropyl)-5-oxidanyl-3-oxidanylidene-cyclopenten-1-yl]-6-oxidanylidene-oct-7-enoic acid

> <PUBCHEM_IUPAC_TRADITIONAL_NAME>
(E)-8-[2-(2-carboxyethyl)-5-hydroxy-3-keto-cyclopenten-1-yl]-6-keto-oct-7-enoic acid

> <PUBCHEM_IUPAC_INCHI>
InChI=1S/C16H20O7/c17-10(3-1-2-4-15(20)21)5-6-11-12(7-8-16(22)23)14(19)9-13(11)18/h5-6,13,18H,1-4,7-9H2,(H,20,21)(H,22,23)/b6-5+

> <PUBCHEM_IUPAC_INCHIKEY>
GUPCBYMJUPUIEK-AATRIKPKSA-N

> <PUBCHEM_XLOGP3_AA>
-1

> <PUBCHEM_EXACT_MASS>
324.12090297

> <PUBCHEM_MOLECULAR_FORMULA>
C16H20O7

> <PUBCHEM_MOLECULAR_WEIGHT>
324.32

> <PUBCHEM_OPENEYE_CAN_SMILES>
C1C(C(=C(C1=O)CCC(=O)O)C=CC(=O)CCCCC(=O)O)O

> <PUBCHEM_OPENEYE_ISO_SMILES>
C1C(C(=C(C1=O)CCC(=O)O)/C=C/C(=O)CCCCC(=O)O)O

> <PUBCHEM_CACTVS_TPSA>
129

> <PUBCHEM_MONOISOTOPIC_WEIGHT>
324.12090297

> <PUBCHEM_TOTAL_CHARGE>
0

> <PUBCHEM_HEAVY_ATOM_COUNT>
23

> <PUBCHEM_ATOM_DEF_STEREO_COUNT>
0

> <PUBCHEM_ATOM_UDEF_STEREO_COUNT>
1

> <PUBCHEM_BOND_DEF_STEREO_COUNT>
1

> <PUBCHEM_BOND_UDEF_STEREO_COUNT>
0

> <PUBCHEM_ISOTOPIC_ATOM_COUNT>
0

> <PUBCHEM_COMPONENT_COUNT>
1

> <PUBCHEM_CACTVS_TAUTO_COUNT>
-1

> <PUBCHEM_COORDINATE_TYPE>
1
5
255

> <PUBCHEM_BONDANNOTATIONS>
8  1  3

$$$$
