 
  -OEChem-10192103332D

 65 66  0     1  0  0  0  0  0999 V2000
    3.9562    3.2804    0.0000 O   0  0  0  0  0  0  0  0  0  0  0  0
    5.1864   -0.9664    0.0000 O   0  0  0  0  0  0  0  0  0  0  0  0
    3.5961    1.5861    0.0000 O   0  0  0  0  0  0  0  0  0  0  0  0
    4.1864    0.0336    0.0000 O   0  0  0  0  0  0  0  0  0  0  0  0
    8.6505    0.0336    0.0000 O   0  0  0  0  0  0  0  0  0  0  0  0
    7.7845    1.5336    0.0000 O   0  0  0  0  0  0  0  0  0  0  0  0
    5.2434    2.1214    0.0000 N   0  0  0  0  0  0  0  0  0  0  0  0
    6.9185    0.0336    0.0000 N   0  0  0  0  0  0  0  0  0  0  0  0
    6.0524    1.5336    0.0000 C   0  0  2  0  0  0  0  0  0  0  0  0
    6.8614    2.1214    0.0000 C   0  0  0  0  0  0  0  0  0  0  0  0
    6.5524    3.0724    0.0000 C   0  0  0  0  0  0  0  0  0  0  0  0
    5.5524    3.0724    0.0000 C   0  0  0  0  0  0  0  0  0  0  0  0
    6.0524    0.5336    0.0000 C   0  0  1  0  0  0  0  0  0  0  0  0
    4.2653    2.3293    0.0000 C   0  0  0  0  0  0  0  0  0  0  0  0
    5.1864    0.0336    0.0000 C   0  0  0  0  0  0  0  0  0  0  0  0
    2.9781    3.4883    0.0000 C   0  0  0  0  0  0  0  0  0  0  0  0
    7.7845    0.5336    0.0000 C   0  0  0  0  0  0  0  0  0  0  0  0
    2.0000    3.6962    0.0000 C   0  0  0  0  0  0  0  0  0  0  0  0
    3.1860    4.4664    0.0000 C   0  0  0  0  0  0  0  0  0  0  0  0
    2.7702    2.5102    0.0000 C   0  0  0  0  0  0  0  0  0  0  0  0
    9.5165    0.5336    0.0000 C   0  0  0  0  0  0  0  0  0  0  0  0
    4.3204   -1.4664    0.0000 C   0  0  0  0  0  0  0  0  0  0  0  0
   10.3826    1.0336    0.0000 C   0  0  0  0  0  0  0  0  0  0  0  0
   10.0165   -0.3324    0.0000 C   0  0  0  0  0  0  0  0  0  0  0  0
    9.0165    1.3996    0.0000 C   0  0  0  0  0  0  0  0  0  0  0  0
    4.3204   -2.4664    0.0000 C   0  0  0  0  0  0  0  0  0  0  0  0
    3.4544   -2.9664    0.0000 C   0  0  0  0  0  0  0  0  0  0  0  0
    5.1864   -2.9664    0.0000 C   0  0  0  0  0  0  0  0  0  0  0  0
    3.4544   -3.9664    0.0000 C   0  0  0  0  0  0  0  0  0  0  0  0
    5.1864   -3.9664    0.0000 C   0  0  0  0  0  0  0  0  0  0  0  0
    4.3204   -4.4664    0.0000 C   0  0  0  0  0  0  0  0  0  0  0  0
    5.2951    1.1477    0.0000 H   0  0  0  0  0  0  0  0  0  0  0  0
    7.1714    1.5844    0.0000 H   0  0  0  0  0  0  0  0  0  0  0  0
    7.4278    2.3736    0.0000 H   0  0  0  0  0  0  0  0  0  0  0  0
    7.1589    3.2013    0.0000 H   0  0  0  0  0  0  0  0  0  0  0  0
    6.4876    3.6890    0.0000 H   0  0  0  0  0  0  0  0  0  0  0  0
    5.6172    3.6890    0.0000 H   0  0  0  0  0  0  0  0  0  0  0  0
    4.9460    3.2013    0.0000 H   0  0  0  0  0  0  0  0  0  0  0  0
    6.0524   -0.0864    0.0000 H   0  0  0  0  0  0  0  0  0  0  0  0
    6.9185   -0.5864    0.0000 H   0  0  0  0  0  0  0  0  0  0  0  0
    2.1290    4.3027    0.0000 H   0  0  0  0  0  0  0  0  0  0  0  0
    1.3936    3.8252    0.0000 H   0  0  0  0  0  0  0  0  0  0  0  0
    1.8710    3.0898    0.0000 H   0  0  0  0  0  0  0  0  0  0  0  0
    3.7925    4.3375    0.0000 H   0  0  0  0  0  0  0  0  0  0  0  0
    3.3149    5.0729    0.0000 H   0  0  0  0  0  0  0  0  0  0  0  0
    2.5796    4.5953    0.0000 H   0  0  0  0  0  0  0  0  0  0  0  0
    2.1638    2.6391    0.0000 H   0  0  0  0  0  0  0  0  0  0  0  0
    2.6413    1.9037    0.0000 H   0  0  0  0  0  0  0  0  0  0  0  0
    3.3767    2.3813    0.0000 H   0  0  0  0  0  0  0  0  0  0  0  0
    4.1083   -0.8838    0.0000 H   0  0  0  0  0  0  0  0  0  0  0  0
    3.7098   -1.5741    0.0000 H   0  0  0  0  0  0  0  0  0  0  0  0
   10.6926    0.4967    0.0000 H   0  0  0  0  0  0  0  0  0  0  0  0
   10.9195    1.3436    0.0000 H   0  0  0  0  0  0  0  0  0  0  0  0
   10.0726    1.5705    0.0000 H   0  0  0  0  0  0  0  0  0  0  0  0
    9.4796   -0.6424    0.0000 H   0  0  0  0  0  0  0  0  0  0  0  0
   10.3265   -0.8694    0.0000 H   0  0  0  0  0  0  0  0  0  0  0  0
   10.5535   -0.0224    0.0000 H   0  0  0  0  0  0  0  0  0  0  0  0
    9.5535    1.7096    0.0000 H   0  0  0  0  0  0  0  0  0  0  0  0
    8.7065    1.9366    0.0000 H   0  0  0  0  0  0  0  0  0  0  0  0
    8.4796    1.0896    0.0000 H   0  0  0  0  0  0  0  0  0  0  0  0
    2.9174   -2.6564    0.0000 H   0  0  0  0  0  0  0  0  0  0  0  0
    5.7234   -2.6564    0.0000 H   0  0  0  0  0  0  0  0  0  0  0  0
    2.9174   -4.2764    0.0000 H   0  0  0  0  0  0  0  0  0  0  0  0
    5.7234   -4.2764    0.0000 H   0  0  0  0  0  0  0  0  0  0  0  0
    4.3204   -5.0864    0.0000 H   0  0  0  0  0  0  0  0  0  0  0  0
  1 14  1  0  0  0  0
  1 16  1  0  0  0  0
  2 15  1  0  0  0  0
  2 22  1  0  0  0  0
  3 14  2  0  0  0  0
  4 15  2  0  0  0  0
  5 17  1  0  0  0  0
  5 21  1  0  0  0  0
  6 17  2  0  0  0  0
  7  9  1  0  0  0  0
  7 12  1  0  0  0  0
  7 14  1  0  0  0  0
 13  8  1  6  0  0  0
  8 17  1  0  0  0  0
  8 40  1  0  0  0  0
  9 10  1  0  0  0  0
  9 13  1  0  0  0  0
  9 32  1  1  0  0  0
 10 11  1  0  0  0  0
 10 33  1  0  0  0  0
 10 34  1  0  0  0  0
 11 12  1  0  0  0  0
 11 35  1  0  0  0  0
 11 36  1  0  0  0  0
 12 37  1  0  0  0  0
 12 38  1  0  0  0  0
 13 15  1  0  0  0  0
 13 39  1  0  0  0  0
 16 18  1  0  0  0  0
 16 19  1  0  0  0  0
 16 20  1  0  0  0  0
 18 41  1  0  0  0  0
 18 42  1  0  0  0  0
 18 43  1  0  0  0  0
 19 44  1  0  0  0  0
 19 45  1  0  0  0  0
 19 46  1  0  0  0  0
 20 47  1  0  0  0  0
 20 48  1  0  0  0  0
 20 49  1  0  0  0  0
 21 23  1  0  0  0  0
 21 24  1  0  0  0  0
 21 25  1  0  0  0  0
 22 26  1  0  0  0  0
 22 50  1  0  0  0  0
 22 51  1  0  0  0  0
 23 52  1  0  0  0  0
 23 53  1  0  0  0  0
 23 54  1  0  0  0  0
 24 55  1  0  0  0  0
 24 56  1  0  0  0  0
 24 57  1  0  0  0  0
 25 58  1  0  0  0  0
 25 59  1  0  0  0  0
 25 60  1  0  0  0  0
 26 27  2  0  0  0  0
 26 28  1  0  0  0  0
 27 29  1  0  0  0  0
 27 61  1  0  0  0  0
 28 30  2  0  0  0  0
 28 62  1  0  0  0  0
 29 31  2  0  0  0  0
 29 63  1  0  0  0  0
 30 31  1  0  0  0  0
 30 64  1  0  0  0  0
 31 65  1  0  0  0  0
M  END
> <PUBCHEM_COMPOUND_CID>
134960823

> <PUBCHEM_COMPOUND_CANONICALIZED>
1

> <PUBCHEM_CACTVS_COMPLEXITY>
631

> <PUBCHEM_CACTVS_HBOND_ACCEPTOR>
6

> <PUBCHEM_CACTVS_HBOND_DONOR>
1

> <PUBCHEM_CACTVS_ROTATABLE_BOND>
10

> <PUBCHEM_CACTVS_SUBSKEYS>
AAADcfB7OAAAAAAAAAAAAAAAAAAAAWAAAAAwAAAAAAAAAAABAAAAHgAQAAAADGzhmAYyCIPABACIAiDSGAACAAAgAAAIiIGICIkKZjqAsTifMAAm1gGYqAeYyCAOAAAAAAAAAAAAAAAAAAAAAAAAAAAAAA==

> <PUBCHEM_IUPAC_OPENEYE_NAME>
tert-butyl (2R)-2-[(1S)-2-benzyloxy-1-(tert-butoxycarbonylamino)-2-oxo-ethyl]pyrrolidine-1-carboxylate

> <PUBCHEM_IUPAC_CAS_NAME>
(2R)-2-[(1S)-1-[[(2-methylpropan-2-yl)oxy-oxomethyl]amino]-2-oxo-2-phenylmethoxyethyl]-1-pyrrolidinecarboxylic acid tert-butyl ester

> <PUBCHEM_IUPAC_NAME_MARKUP>
<I>tert</I>-butyl (2<I>R</I>)-2-[(1<I>S</I>)-1-[(2-methylpropan-2-yl)oxycarbonylamino]-2-oxo-2-phenylmethoxyethyl]pyrrolidine-1-carboxylate

> <PUBCHEM_IUPAC_NAME>
tert-butyl (2R)-2-[(1S)-1-[(2-methylpropan-2-yl)oxycarbonylamino]-2-oxo-2-phenylmethoxyethyl]pyrrolidine-1-carboxylate

> <PUBCHEM_IUPAC_SYSTEMATIC_NAME>
tert-butyl (2R)-2-[(1S)-1-[(2-methylpropan-2-yl)oxycarbonylamino]-2-oxidanylidene-2-phenylmethoxy-ethyl]pyrrolidine-1-carboxylate

> <PUBCHEM_IUPAC_TRADITIONAL_NAME>
(2R)-2-[(1S)-2-benzoxy-1-(tert-butoxycarbonylamino)-2-keto-ethyl]pyrrolidine-1-carboxylic acid tert-butyl ester

> <PUBCHEM_IUPAC_INCHI>
InChI=1S/C23H34N2O6/c1-22(2,3)30-20(27)24-18(19(26)29-15-16-11-8-7-9-12-16)17-13-10-14-25(17)21(28)31-23(4,5)6/h7-9,11-12,17-18H,10,13-15H2,1-6H3,(H,24,27)/t17-,18+/m1/s1

> <PUBCHEM_IUPAC_INCHIKEY>
QESUFIOKRFBPNU-MSOLQXFVSA-N

> <PUBCHEM_XLOGP3_AA>
3.8

> <PUBCHEM_EXACT_MASS>
434.24168681

> <PUBCHEM_MOLECULAR_FORMULA>
C23H34N2O6

> <PUBCHEM_MOLECULAR_WEIGHT>
434.5

> <PUBCHEM_OPENEYE_CAN_SMILES>
CC(C)(C)OC(=O)NC(C1CCCN1C(=O)OC(C)(C)C)C(=O)OCC2=CC=CC=C2

> <PUBCHEM_OPENEYE_ISO_SMILES>
CC(C)(C)OC(=O)N[C@@H]([C@H]1CCCN1C(=O)OC(C)(C)C)C(=O)OCC2=CC=CC=C2

> <PUBCHEM_CACTVS_TPSA>
94.2

> <PUBCHEM_MONOISOTOPIC_WEIGHT>
434.24168681

> <PUBCHEM_TOTAL_CHARGE>
0

> <PUBCHEM_HEAVY_ATOM_COUNT>
31

> <PUBCHEM_ATOM_DEF_STEREO_COUNT>
2

> <PUBCHEM_ATOM_UDEF_STEREO_COUNT>
0

> <PUBCHEM_BOND_DEF_STEREO_COUNT>
0

> <PUBCHEM_BOND_UDEF_STEREO_COUNT>
0

> <PUBCHEM_ISOTOPIC_ATOM_COUNT>
0

> <PUBCHEM_COMPONENT_COUNT>
1

> <PUBCHEM_CACTVS_TAUTO_COUNT>
-1

> <PUBCHEM_COORDINATE_TYPE>
1
5
255

> <PUBCHEM_BONDANNOTATIONS>
26  27  8
26  28  8
27  29  8
28  30  8
29  31  8
30  31  8
13  8  6
9  32  5

$$$$
