 
  -OEChem-10192104282D

 93 92  0     1  0  0  0  0  0999 V2000
    8.9282    1.7500    0.0000 O   0  0  0  0  0  0  0  0  0  0  0  0
   12.3923    1.7500    0.0000 O   0  0  0  0  0  0  0  0  0  0  0  0
    6.3301    0.2500    0.0000 O   0  0  0  0  0  0  0  0  0  0  0  0
   15.8564    1.7500    0.0000 O   0  0  0  0  0  0  0  0  0  0  0  0
   11.5263    0.2500    0.0000 O   0  0  0  0  0  0  0  0  0  0  0  0
    8.0622    0.2500    0.0000 O   0  0  0  0  0  0  0  0  0  0  0  0
   14.9904    0.2500    0.0000 O   0  0  0  0  0  0  0  0  0  0  0  0
   19.3205    1.7500    0.0000 O   0  0  0  0  0  0  0  0  0  0  0  0
   18.4545    0.2500    0.0000 O   0  0  0  0  0  0  0  0  0  0  0  0
   22.7846    1.7500    0.0000 O   0  0  0  0  0  0  0  0  0  0  0  0
   21.9186    0.2500    0.0000 O   0  0  0  0  0  0  0  0  0  0  0  0
    9.7942    1.2500    0.0000 C   0  0  3  0  0  0  0  0  0  0  0  0
    9.7942    0.2500    0.0000 C   0  0  0  0  0  0  0  0  0  0  0  0
   10.6603    1.7500    0.0000 C   0  0  0  0  0  0  0  0  0  0  0  0
   13.2583    1.2500    0.0000 C   0  0  3  0  0  0  0  0  0  0  0  0
    8.9282   -0.2500    0.0000 C   0  0  0  0  0  0  0  0  0  0  0  0
    6.3301    1.2500    0.0000 C   0  0  3  0  0  0  0  0  0  0  0  0
    5.4641    1.7500    0.0000 C   0  0  0  0  0  0  0  0  0  0  0  0
    4.5981    1.2500    0.0000 C   0  0  0  0  0  0  0  0  0  0  0  0
   13.2583    0.2500    0.0000 C   0  0  0  0  0  0  0  0  0  0  0  0
    7.1962    1.7500    0.0000 C   0  0  0  0  0  0  0  0  0  0  0  0
   14.1244    1.7500    0.0000 C   0  0  0  0  0  0  0  0  0  0  0  0
    3.7320    1.7500    0.0000 C   0  0  0  0  0  0  0  0  0  0  0  0
    8.9282   -1.2500    0.0000 C   0  0  0  0  0  0  0  0  0  0  0  0
   11.5263    1.2500    0.0000 C   0  0  0  0  0  0  0  0  0  0  0  0
    8.0622    1.2500    0.0000 C   0  0  0  0  0  0  0  0  0  0  0  0
   14.1244   -0.2500    0.0000 C   0  0  0  0  0  0  0  0  0  0  0  0
    2.8660    1.2500    0.0000 C   0  0  0  0  0  0  0  0  0  0  0  0
   16.7224    1.2500    0.0000 C   0  0  3  0  0  0  0  0  0  0  0  0
   14.9904    1.2500    0.0000 C   0  0  0  0  0  0  0  0  0  0  0  0
    8.0622   -1.7500    0.0000 C   0  0  0  0  0  0  0  0  0  0  0  0
   16.7224    0.2500    0.0000 C   0  0  0  0  0  0  0  0  0  0  0  0
   17.5885    1.7500    0.0000 C   0  0  0  0  0  0  0  0  0  0  0  0
   14.1244   -1.2500    0.0000 C   0  0  0  0  0  0  0  0  0  0  0  0
    2.0000    1.7500    0.0000 C   0  0  0  0  0  0  0  0  0  0  0  0
   17.5885   -0.2500    0.0000 C   0  0  0  0  0  0  0  0  0  0  0  0
   18.4545    1.2500    0.0000 C   0  0  0  0  0  0  0  0  0  0  0  0
   20.1865    1.2500    0.0000 C   0  0  3  0  0  0  0  0  0  0  0  0
   21.0526    1.7500    0.0000 C   0  0  0  0  0  0  0  0  0  0  0  0
   20.1865    0.2500    0.0000 C   0  0  0  0  0  0  0  0  0  0  0  0
   21.9186    1.2500    0.0000 C   0  0  0  0  0  0  0  0  0  0  0  0
    9.2573    0.9400    0.0000 H   0  0  0  0  0  0  0  0  0  0  0  0
   10.0063   -0.3326    0.0000 H   0  0  0  0  0  0  0  0  0  0  0  0
   10.4048    0.3577    0.0000 H   0  0  0  0  0  0  0  0  0  0  0  0
   11.0588    2.2250    0.0000 H   0  0  0  0  0  0  0  0  0  0  0  0
   10.2617    2.2250    0.0000 H   0  0  0  0  0  0  0  0  0  0  0  0
   13.2583    1.8700    0.0000 H   0  0  0  0  0  0  0  0  0  0  0  0
    8.7162    0.3326    0.0000 H   0  0  0  0  0  0  0  0  0  0  0  0
    8.3176   -0.3577    0.0000 H   0  0  0  0  0  0  0  0  0  0  0  0
    6.8671    0.9400    0.0000 H   0  0  0  0  0  0  0  0  0  0  0  0
    5.8626    2.2250    0.0000 H   0  0  0  0  0  0  0  0  0  0  0  0
    5.0656    2.2250    0.0000 H   0  0  0  0  0  0  0  0  0  0  0  0
    4.1996    0.7751    0.0000 H   0  0  0  0  0  0  0  0  0  0  0  0
    4.9966    0.7751    0.0000 H   0  0  0  0  0  0  0  0  0  0  0  0
   12.6477    0.3577    0.0000 H   0  0  0  0  0  0  0  0  0  0  0  0
   13.0463   -0.3326    0.0000 H   0  0  0  0  0  0  0  0  0  0  0  0
    7.5947    2.2250    0.0000 H   0  0  0  0  0  0  0  0  0  0  0  0
    6.7976    2.2250    0.0000 H   0  0  0  0  0  0  0  0  0  0  0  0
   14.5229    2.2250    0.0000 H   0  0  0  0  0  0  0  0  0  0  0  0
   13.7258    2.2250    0.0000 H   0  0  0  0  0  0  0  0  0  0  0  0
    4.1306    2.2250    0.0000 H   0  0  0  0  0  0  0  0  0  0  0  0
    3.3335    2.2250    0.0000 H   0  0  0  0  0  0  0  0  0  0  0  0
    9.1403   -1.8326    0.0000 H   0  0  0  0  0  0  0  0  0  0  0  0
    9.5388   -1.1423    0.0000 H   0  0  0  0  0  0  0  0  0  0  0  0
   14.7349   -0.3577    0.0000 H   0  0  0  0  0  0  0  0  0  0  0  0
   14.3364    0.3326    0.0000 H   0  0  0  0  0  0  0  0  0  0  0  0
    2.4675    0.7751    0.0000 H   0  0  0  0  0  0  0  0  0  0  0  0
    3.2646    0.7751    0.0000 H   0  0  0  0  0  0  0  0  0  0  0  0
   16.1855    0.9400    0.0000 H   0  0  0  0  0  0  0  0  0  0  0  0
    7.7522   -1.2131    0.0000 H   0  0  0  0  0  0  0  0  0  0  0  0
    7.5252   -2.0600    0.0000 H   0  0  0  0  0  0  0  0  0  0  0  0
    8.3722   -2.2869    0.0000 H   0  0  0  0  0  0  0  0  0  0  0  0
   16.1119    0.3577    0.0000 H   0  0  0  0  0  0  0  0  0  0  0  0
   16.5104   -0.3326    0.0000 H   0  0  0  0  0  0  0  0  0  0  0  0
   17.9870    2.2250    0.0000 H   0  0  0  0  0  0  0  0  0  0  0  0
   17.1899    2.2250    0.0000 H   0  0  0  0  0  0  0  0  0  0  0  0
   13.5044   -1.2500    0.0000 H   0  0  0  0  0  0  0  0  0  0  0  0
   14.1244   -1.8700    0.0000 H   0  0  0  0  0  0  0  0  0  0  0  0
   14.7444   -1.2500    0.0000 H   0  0  0  0  0  0  0  0  0  0  0  0
    5.7932   -0.0600    0.0000 H   0  0  0  0  0  0  0  0  0  0  0  0
    2.3100    2.2869    0.0000 H   0  0  0  0  0  0  0  0  0  0  0  0
    1.4631    2.0600    0.0000 H   0  0  0  0  0  0  0  0  0  0  0  0
    1.6900    1.2131    0.0000 H   0  0  0  0  0  0  0  0  0  0  0  0
   17.2785   -0.7869    0.0000 H   0  0  0  0  0  0  0  0  0  0  0  0
   18.1254   -0.5600    0.0000 H   0  0  0  0  0  0  0  0  0  0  0  0
   17.8985    0.2869    0.0000 H   0  0  0  0  0  0  0  0  0  0  0  0
   19.6496    0.9400    0.0000 H   0  0  0  0  0  0  0  0  0  0  0  0
   21.4511    2.2250    0.0000 H   0  0  0  0  0  0  0  0  0  0  0  0
   20.6540    2.2250    0.0000 H   0  0  0  0  0  0  0  0  0  0  0  0
   19.5665    0.2500    0.0000 H   0  0  0  0  0  0  0  0  0  0  0  0
   20.1865   -0.3700    0.0000 H   0  0  0  0  0  0  0  0  0  0  0  0
   20.8065    0.2500    0.0000 H   0  0  0  0  0  0  0  0  0  0  0  0
   23.3215    1.4400    0.0000 H   0  0  0  0  0  0  0  0  0  0  0  0
  1 12  1  0  0  0  0
  1 26  1  0  0  0  0
  2 15  1  0  0  0  0
  2 25  1  0  0  0  0
  3 17  1  0  0  0  0
  3 80  1  0  0  0  0
  4 29  1  0  0  0  0
  4 30  1  0  0  0  0
  5 25  2  0  0  0  0
  6 26  2  0  0  0  0
  7 30  2  0  0  0  0
  8 37  1  0  0  0  0
  8 38  1  0  0  0  0
  9 37  2  0  0  0  0
 10 41  1  0  0  0  0
 10 93  1  0  0  0  0
 11 41  2  0  0  0  0
 12 13  1  0  0  0  0
 12 14  1  0  0  0  0
 12 42  1  0  0  0  0
 13 16  1  0  0  0  0
 13 43  1  0  0  0  0
 13 44  1  0  0  0  0
 14 25  1  0  0  0  0
 14 45  1  0  0  0  0
 14 46  1  0  0  0  0
 15 20  1  0  0  0  0
 15 22  1  0  0  0  0
 15 47  1  0  0  0  0
 16 24  1  0  0  0  0
 16 48  1  0  0  0  0
 16 49  1  0  0  0  0
 17 18  1  0  0  0  0
 17 21  1  0  0  0  0
 17 50  1  0  0  0  0
 18 19  1  0  0  0  0
 18 51  1  0  0  0  0
 18 52  1  0  0  0  0
 19 23  1  0  0  0  0
 19 53  1  0  0  0  0
 19 54  1  0  0  0  0
 20 27  1  0  0  0  0
 20 55  1  0  0  0  0
 20 56  1  0  0  0  0
 21 26  1  0  0  0  0
 21 57  1  0  0  0  0
 21 58  1  0  0  0  0
 22 30  1  0  0  0  0
 22 59  1  0  0  0  0
 22 60  1  0  0  0  0
 23 28  1  0  0  0  0
 23 61  1  0  0  0  0
 23 62  1  0  0  0  0
 24 31  1  0  0  0  0
 24 63  1  0  0  0  0
 24 64  1  0  0  0  0
 27 34  1  0  0  0  0
 27 65  1  0  0  0  0
 27 66  1  0  0  0  0
 28 35  1  0  0  0  0
 28 67  1  0  0  0  0
 28 68  1  0  0  0  0
 29 32  1  0  0  0  0
 29 33  1  0  0  0  0
 29 69  1  0  0  0  0
 31 70  1  0  0  0  0
 31 71  1  0  0  0  0
 31 72  1  0  0  0  0
 32 36  1  0  0  0  0
 32 73  1  0  0  0  0
 32 74  1  0  0  0  0
 33 37  1  0  0  0  0
 33 75  1  0  0  0  0
 33 76  1  0  0  0  0
 34 77  1  0  0  0  0
 34 78  1  0  0  0  0
 34 79  1  0  0  0  0
 35 81  1  0  0  0  0
 35 82  1  0  0  0  0
 35 83  1  0  0  0  0
 36 84  1  0  0  0  0
 36 85  1  0  0  0  0
 36 86  1  0  0  0  0
 38 39  1  0  0  0  0
 38 40  1  0  0  0  0
 38 87  1  0  0  0  0
 39 41  1  0  0  0  0
 39 88  1  0  0  0  0
 39 89  1  0  0  0  0
 40 90  1  0  0  0  0
 40 91  1  0  0  0  0
 40 92  1  0  0  0  0
M  END
> <PUBCHEM_COMPOUND_CID>
87326511

> <PUBCHEM_COMPOUND_CANONICALIZED>
1

> <PUBCHEM_CACTVS_COMPLEXITY>
782

> <PUBCHEM_CACTVS_HBOND_ACCEPTOR>
11

> <PUBCHEM_CACTVS_HBOND_DONOR>
2

> <PUBCHEM_CACTVS_ROTATABLE_BOND>
28

> <PUBCHEM_CACTVS_SUBSKEYS>
AAADcfB4PAAAAAAAAAAAAAAAAAAAAAAAAAAAAAAAAAAAAAAAAAAAGgAACAAACBSggAICCAAABgAIAACQCAAAAAAAAAAAAAEAAAAAEBYAAAACQAAFIAAAAAGIyKCAAAAAAAAAAAAAAAAAAAAAAAAAAAAAAA==

> <PUBCHEM_IUPAC_OPENEYE_NAME>
3-[3-[3-[3-(3-hydroxyoctanoyloxy)heptanoyloxy]hexanoyloxy]pentanoyloxy]butanoic acid

> <PUBCHEM_IUPAC_CAS_NAME>
3-[3-[3-[3-(3-hydroxy-1-oxooctoxy)-1-oxoheptoxy]-1-oxohexoxy]-1-oxopentoxy]butanoic acid

> <PUBCHEM_IUPAC_NAME_MARKUP>
3-[3-[3-[3-(3-hydroxyoctanoyloxy)heptanoyloxy]hexanoyloxy]pentanoyloxy]butanoic acid

> <PUBCHEM_IUPAC_NAME>
3-[3-[3-[3-(3-hydroxyoctanoyloxy)heptanoyloxy]hexanoyloxy]pentanoyloxy]butanoic acid

> <PUBCHEM_IUPAC_SYSTEMATIC_NAME>
3-[3-[3-[3-(3-oxidanyloctanoyloxy)heptanoyloxy]hexanoyloxy]pentanoyloxy]butanoic acid

> <PUBCHEM_IUPAC_TRADITIONAL_NAME>
3-[3-[3-[3-(3-hydroxyoctanoyloxy)heptanoyloxy]hexanoyloxy]pentanoyloxy]butyric acid

> <PUBCHEM_IUPAC_INCHI>
InChI=1S/C30H52O11/c1-6-10-12-14-22(31)17-27(34)41-25(15-11-7-2)20-30(37)40-24(13-8-3)19-29(36)39-23(9-4)18-28(35)38-21(5)16-26(32)33/h21-25,31H,6-20H2,1-5H3,(H,32,33)

> <PUBCHEM_IUPAC_INCHIKEY>
JDQQWVFPFDWIAZ-UHFFFAOYSA-N

> <PUBCHEM_XLOGP3_AA>
5.3

> <PUBCHEM_EXACT_MASS>
588.35096247

> <PUBCHEM_MOLECULAR_FORMULA>
C30H52O11

> <PUBCHEM_MOLECULAR_WEIGHT>
588.7

> <PUBCHEM_OPENEYE_CAN_SMILES>
CCCCCC(CC(=O)OC(CCCC)CC(=O)OC(CCC)CC(=O)OC(CC)CC(=O)OC(C)CC(=O)O)O

> <PUBCHEM_OPENEYE_ISO_SMILES>
CCCCCC(CC(=O)OC(CCCC)CC(=O)OC(CCC)CC(=O)OC(CC)CC(=O)OC(C)CC(=O)O)O

> <PUBCHEM_CACTVS_TPSA>
163

> <PUBCHEM_MONOISOTOPIC_WEIGHT>
588.35096247

> <PUBCHEM_TOTAL_CHARGE>
0

> <PUBCHEM_HEAVY_ATOM_COUNT>
41

> <PUBCHEM_ATOM_DEF_STEREO_COUNT>
0

> <PUBCHEM_ATOM_UDEF_STEREO_COUNT>
5

> <PUBCHEM_BOND_DEF_STEREO_COUNT>
0

> <PUBCHEM_BOND_UDEF_STEREO_COUNT>
0

> <PUBCHEM_ISOTOPIC_ATOM_COUNT>
0

> <PUBCHEM_COMPONENT_COUNT>
1

> <PUBCHEM_CACTVS_TAUTO_COUNT>
-1

> <PUBCHEM_COORDINATE_TYPE>
1
5
255

> <PUBCHEM_BONDANNOTATIONS>
12  13  3
15  20  3
29  32  3
17  3  3
38  40  3

$$$$
