 
  -OEChem-10192103382D

 38 38  0     1  0  0  0  0  0999 V2000
    5.0490    3.0580    0.0000 S   0  0  0  0  0  0  0  0  0  0  0  0
    7.6751   -2.7207    0.0000 O   0  0  0  0  0  0  0  0  0  0  0  0
    2.4608   -3.0809    0.0000 O   0  0  0  0  0  0  0  0  0  0  0  0
    3.6197   -4.3680    0.0000 O   0  0  0  0  0  0  0  0  0  0  0  0
    5.0490    2.0580    0.0000 O   0  0  0  0  0  0  0  0  0  0  0  0
    5.0490    4.0580    0.0000 O   0  0  0  0  0  0  0  0  0  0  0  0
    4.0490    3.0580    0.0000 O   0  0  0  0  0  0  0  0  0  0  0  0
    6.0490    3.0580    0.0000 O   0  0  0  0  0  0  0  0  0  0  0  0
    5.1060   -3.0298    0.0000 C   0  0  2  0  0  0  0  0  0  0  0  0
    5.9150   -2.4420    0.0000 C   0  0  2  0  0  0  0  0  0  0  0  0
    5.4150   -3.9808    0.0000 C   0  0  0  0  0  0  0  0  0  0  0  0
    6.4150   -3.9808    0.0000 C   0  0  0  0  0  0  0  0  0  0  0  0
    6.7240   -3.0298    0.0000 C   0  0  0  0  0  0  0  0  0  0  0  0
    5.9150   -1.4420    0.0000 C   0  0  0  0  0  0  0  0  0  0  0  0
    4.1550   -2.7207    0.0000 C   0  0  0  0  0  0  0  0  0  0  0  0
    6.7810   -0.9420    0.0000 C   0  0  0  0  0  0  0  0  0  0  0  0
    3.4118   -3.3899    0.0000 C   0  0  0  0  0  0  0  0  0  0  0  0
    6.7810    0.0580    0.0000 C   0  0  0  0  0  0  0  0  0  0  0  0
    5.9150    0.5580    0.0000 C   0  0  0  0  0  0  0  0  0  0  0  0
    5.9150    1.5580    0.0000 C   0  0  0  0  0  0  0  0  0  0  0  0
    5.0090   -2.4174    0.0000 H   0  0  0  0  0  0  0  0  0  0  0  0
    6.4675   -2.1605    0.0000 H   0  0  0  0  0  0  0  0  0  0  0  0
    4.8086   -4.1097    0.0000 H   0  0  0  0  0  0  0  0  0  0  0  0
    5.4798   -4.5974    0.0000 H   0  0  0  0  0  0  0  0  0  0  0  0
    6.3502   -4.5974    0.0000 H   0  0  0  0  0  0  0  0  0  0  0  0
    7.0215   -4.1097    0.0000 H   0  0  0  0  0  0  0  0  0  0  0  0
    5.7030   -0.8594    0.0000 H   0  0  0  0  0  0  0  0  0  0  0  0
    5.3044   -1.5496    0.0000 H   0  0  0  0  0  0  0  0  0  0  0  0
    4.4460   -2.1733    0.0000 H   0  0  0  0  0  0  0  0  0  0  0  0
    3.6664   -2.3390    0.0000 H   0  0  0  0  0  0  0  0  0  0  0  0
    7.3180   -1.2520    0.0000 H   0  0  0  0  0  0  0  0  0  0  0  0
    7.3180    0.3680    0.0000 H   0  0  0  0  0  0  0  0  0  0  0  0
    5.3044    0.6657    0.0000 H   0  0  0  0  0  0  0  0  0  0  0  0
    5.7030   -0.0246    0.0000 H   0  0  0  0  0  0  0  0  0  0  0  0
    2.0000   -3.4957    0.0000 H   0  0  0  0  0  0  0  0  0  0  0  0
    6.5256    1.4504    0.0000 H   0  0  0  0  0  0  0  0  0  0  0  0
    6.1271    2.1406    0.0000 H   0  0  0  0  0  0  0  0  0  0  0  0
    4.5121    4.3680    0.0000 H   0  0  0  0  0  0  0  0  0  0  0  0
  1  5  1  0  0  0  0
  1  6  1  0  0  0  0
  1  7  2  0  0  0  0
  1  8  2  0  0  0  0
  2 13  2  0  0  0  0
  3 17  1  0  0  0  0
  3 35  1  0  0  0  0
  4 17  2  0  0  0  0
  5 20  1  0  0  0  0
  6 38  1  0  0  0  0
  9 10  1  0  0  0  0
  9 11  1  0  0  0  0
  9 15  1  6  0  0  0
  9 21  1  0  0  0  0
 10 13  1  0  0  0  0
 10 14  1  1  0  0  0
 10 22  1  0  0  0  0
 11 12  1  0  0  0  0
 11 23  1  0  0  0  0
 11 24  1  0  0  0  0
 12 13  1  0  0  0  0
 12 25  1  0  0  0  0
 12 26  1  0  0  0  0
 14 16  1  0  0  0  0
 14 27  1  0  0  0  0
 14 28  1  0  0  0  0
 15 17  1  0  0  0  0
 15 29  1  0  0  0  0
 15 30  1  0  0  0  0
 16 18  2  0  0  0  0
 16 31  1  0  0  0  0
 18 19  1  0  0  0  0
 18 32  1  0  0  0  0
 19 20  1  0  0  0  0
 19 33  1  0  0  0  0
 19 34  1  0  0  0  0
 20 36  1  0  0  0  0
 20 37  1  0  0  0  0
M  END
> <PUBCHEM_COMPOUND_CID>
44815853

> <PUBCHEM_COMPOUND_CANONICALIZED>
1

> <PUBCHEM_CACTVS_COMPLEXITY>
475

> <PUBCHEM_CACTVS_HBOND_ACCEPTOR>
7

> <PUBCHEM_CACTVS_HBOND_DONOR>
2

> <PUBCHEM_CACTVS_ROTATABLE_BOND>
8

> <PUBCHEM_CACTVS_SUBSKEYS>
AAADceBwOABAAAAAAAAAAAAAAAAAAYAAAAAAAAAAAAAAAAAAAAAAGgAACAAADQSggAIACAAAAoCIAKDSCDAAAAAgAAAICAEAAAgAABIAAQAAQAAEwAAIAAOIzqCugAAAAAAAAAAAAAAAAAAAAAAACAAAAA==

> <PUBCHEM_IUPAC_OPENEYE_NAME>
2-[(1R,2R)-3-oxo-2-[(Z)-5-sulfooxypent-2-enyl]cyclopentyl]acetic acid

> <PUBCHEM_IUPAC_CAS_NAME>
2-[(1R,2R)-3-oxo-2-[(Z)-5-sulfooxypent-2-enyl]cyclopentyl]acetic acid

> <PUBCHEM_IUPAC_NAME_MARKUP>
2-[(1<I>R</I>,2<I>R</I>)-3-oxo-2-[(<I>Z</I>)-5-sulfooxypent-2-enyl]cyclopentyl]acetic acid

> <PUBCHEM_IUPAC_NAME>
2-[(1R,2R)-3-oxo-2-[(Z)-5-sulfooxypent-2-enyl]cyclopentyl]acetic acid

> <PUBCHEM_IUPAC_SYSTEMATIC_NAME>
2-[(1R,2R)-3-oxidanylidene-2-[(Z)-5-sulfooxypent-2-enyl]cyclopentyl]ethanoic acid

> <PUBCHEM_IUPAC_TRADITIONAL_NAME>
2-[(1R,2R)-3-keto-2-[(Z)-5-sulfoxypent-2-enyl]cyclopentyl]acetic acid

> <PUBCHEM_IUPAC_INCHI>
InChI=1S/C12H18O7S/c13-11-6-5-9(8-12(14)15)10(11)4-2-1-3-7-19-20(16,17)18/h1-2,9-10H,3-8H2,(H,14,15)(H,16,17,18)/b2-1-/t9-,10-/m1/s1

> <PUBCHEM_IUPAC_INCHIKEY>
MLUJBNROAVANKK-BSANDHCLSA-N

> <PUBCHEM_XLOGP3_AA>
0

> <PUBCHEM_EXACT_MASS>
306.07732408

> <PUBCHEM_MOLECULAR_FORMULA>
C12H18O7S

> <PUBCHEM_MOLECULAR_WEIGHT>
306.33

> <PUBCHEM_OPENEYE_CAN_SMILES>
C1CC(=O)C(C1CC(=O)O)CC=CCCOS(=O)(=O)O

> <PUBCHEM_OPENEYE_ISO_SMILES>
C1CC(=O)[C@@H]([C@H]1CC(=O)O)C/C=C\CCOS(=O)(=O)O

> <PUBCHEM_CACTVS_TPSA>
126

> <PUBCHEM_MONOISOTOPIC_WEIGHT>
306.07732408

> <PUBCHEM_TOTAL_CHARGE>
0

> <PUBCHEM_HEAVY_ATOM_COUNT>
20

> <PUBCHEM_ATOM_DEF_STEREO_COUNT>
2

> <PUBCHEM_ATOM_UDEF_STEREO_COUNT>
0

> <PUBCHEM_BOND_DEF_STEREO_COUNT>
1

> <PUBCHEM_BOND_UDEF_STEREO_COUNT>
0

> <PUBCHEM_ISOTOPIC_ATOM_COUNT>
0

> <PUBCHEM_COMPONENT_COUNT>
1

> <PUBCHEM_CACTVS_TAUTO_COUNT>
-1

> <PUBCHEM_COORDINATE_TYPE>
1
5
255

> <PUBCHEM_BONDANNOTATIONS>
10  14  5
9  15  6

$$$$
