 
  -OEChem-10192103402D

 62 62  0     1  0  0  0  0  0999 V2000
   12.7577   -1.7756    0.0000 O   0  0  0  0  0  0  0  0  0  0  0  0
    9.9098   -3.8447    0.0000 O   0  0  0  0  0  0  0  0  0  0  0  0
   10.9976    1.5032    0.0000 O   0  0  0  0  0  0  0  0  0  0  0  0
    2.4608   -3.2160    0.0000 O   0  0  0  0  0  0  0  0  0  0  0  0
    3.6197   -4.5032    0.0000 O   0  0  0  0  0  0  0  0  0  0  0  0
   10.9976   -1.4968    0.0000 C   0  0  2  0  0  0  0  0  0  0  0  0
   10.1886   -2.0846    0.0000 C   0  0  1  0  0  0  0  0  0  0  0  0
   11.8066   -2.0846    0.0000 C   0  0  1  0  0  0  0  0  0  0  0  0
   11.4976   -3.0356    0.0000 C   0  0  0  0  0  0  0  0  0  0  0  0
    9.2376   -1.7756    0.0000 C   0  0  0  0  0  0  0  0  0  0  0  0
   10.9976   -0.4968    0.0000 C   0  0  0  0  0  0  0  0  0  0  0  0
   10.4976   -3.0356    0.0000 C   0  0  0  0  0  0  0  0  0  0  0  0
    8.4944   -2.4447    0.0000 C   0  0  0  0  0  0  0  0  0  0  0  0
   11.8637    0.0032    0.0000 C   0  0  0  0  0  0  0  0  0  0  0  0
    7.5434   -2.1357    0.0000 C   0  0  0  0  0  0  0  0  0  0  0  0
    6.8002   -2.8048    0.0000 C   0  0  0  0  0  0  0  0  0  0  0  0
   11.8637    1.0032    0.0000 C   0  0  0  0  0  0  0  0  0  0  0  0
   12.7297    1.5032    0.0000 C   0  0  0  0  0  0  0  0  0  0  0  0
    5.8492   -2.4958    0.0000 C   0  0  0  0  0  0  0  0  0  0  0  0
   12.7297    2.5032    0.0000 C   0  0  0  0  0  0  0  0  0  0  0  0
    5.1060   -3.1649    0.0000 C   0  0  0  0  0  0  0  0  0  0  0  0
   13.5957    3.0032    0.0000 C   0  0  0  0  0  0  0  0  0  0  0  0
    4.1550   -2.8559    0.0000 C   0  0  0  0  0  0  0  0  0  0  0  0
   13.5957    4.0032    0.0000 C   0  0  0  0  0  0  0  0  0  0  0  0
    3.4118   -3.5250    0.0000 C   0  0  0  0  0  0  0  0  0  0  0  0
   14.4617    4.5032    0.0000 C   0  0  0  0  0  0  0  0  0  0  0  0
   10.4452   -1.2153    0.0000 H   0  0  0  0  0  0  0  0  0  0  0  0
   10.0916   -1.4722    0.0000 H   0  0  0  0  0  0  0  0  0  0  0  0
   12.2451   -2.5230    0.0000 H   0  0  0  0  0  0  0  0  0  0  0  0
   11.4328   -3.6522    0.0000 H   0  0  0  0  0  0  0  0  0  0  0  0
   12.1041   -3.1646    0.0000 H   0  0  0  0  0  0  0  0  0  0  0  0
    9.5286   -1.2282    0.0000 H   0  0  0  0  0  0  0  0  0  0  0  0
    8.7490   -1.3939    0.0000 H   0  0  0  0  0  0  0  0  0  0  0  0
   10.7856    0.0858    0.0000 H   0  0  0  0  0  0  0  0  0  0  0  0
   10.3870   -0.6045    0.0000 H   0  0  0  0  0  0  0  0  0  0  0  0
    8.2033   -2.9921    0.0000 H   0  0  0  0  0  0  0  0  0  0  0  0
    8.9830   -2.8264    0.0000 H   0  0  0  0  0  0  0  0  0  0  0  0
   12.0757   -0.5794    0.0000 H   0  0  0  0  0  0  0  0  0  0  0  0
   12.4742    0.1109    0.0000 H   0  0  0  0  0  0  0  0  0  0  0  0
    7.8344   -1.5883    0.0000 H   0  0  0  0  0  0  0  0  0  0  0  0
    7.0548   -1.7540    0.0000 H   0  0  0  0  0  0  0  0  0  0  0  0
   13.2185   -2.1904    0.0000 H   0  0  0  0  0  0  0  0  0  0  0  0
    6.5091   -3.3522    0.0000 H   0  0  0  0  0  0  0  0  0  0  0  0
    7.2888   -3.1865    0.0000 H   0  0  0  0  0  0  0  0  0  0  0  0
   12.9417    0.9206    0.0000 H   0  0  0  0  0  0  0  0  0  0  0  0
   13.3403    1.6109    0.0000 H   0  0  0  0  0  0  0  0  0  0  0  0
    6.1402   -1.9484    0.0000 H   0  0  0  0  0  0  0  0  0  0  0  0
    5.3606   -2.1141    0.0000 H   0  0  0  0  0  0  0  0  0  0  0  0
   12.5176    3.0858    0.0000 H   0  0  0  0  0  0  0  0  0  0  0  0
   12.1191    2.3955    0.0000 H   0  0  0  0  0  0  0  0  0  0  0  0
    4.8149   -3.7124    0.0000 H   0  0  0  0  0  0  0  0  0  0  0  0
    5.5946   -3.5466    0.0000 H   0  0  0  0  0  0  0  0  0  0  0  0
   13.8078    2.4206    0.0000 H   0  0  0  0  0  0  0  0  0  0  0  0
   14.2063    3.1109    0.0000 H   0  0  0  0  0  0  0  0  0  0  0  0
    4.4460   -2.3085    0.0000 H   0  0  0  0  0  0  0  0  0  0  0  0
    3.6664   -2.4742    0.0000 H   0  0  0  0  0  0  0  0  0  0  0  0
   13.3837    4.5858    0.0000 H   0  0  0  0  0  0  0  0  0  0  0  0
   12.9851    3.8955    0.0000 H   0  0  0  0  0  0  0  0  0  0  0  0
   14.7717    3.9663    0.0000 H   0  0  0  0  0  0  0  0  0  0  0  0
   14.9987    4.8132    0.0000 H   0  0  0  0  0  0  0  0  0  0  0  0
   14.1517    5.0401    0.0000 H   0  0  0  0  0  0  0  0  0  0  0  0
    2.0000   -3.6309    0.0000 H   0  0  0  0  0  0  0  0  0  0  0  0
  8  1  1  6  0  0  0
  1 42  1  0  0  0  0
  2 12  2  0  0  0  0
  3 17  2  0  0  0  0
  4 25  1  0  0  0  0
  4 62  1  0  0  0  0
  5 25  2  0  0  0  0
  6  7  1  0  0  0  0
  6  8  1  0  0  0  0
  6 11  1  1  0  0  0
  6 27  1  0  0  0  0
  7 10  1  6  0  0  0
  7 12  1  0  0  0  0
  7 28  1  0  0  0  0
  8  9  1  0  0  0  0
  8 29  1  0  0  0  0
  9 12  1  0  0  0  0
  9 30  1  0  0  0  0
  9 31  1  0  0  0  0
 10 13  1  0  0  0  0
 10 32  1  0  0  0  0
 10 33  1  0  0  0  0
 11 14  1  0  0  0  0
 11 34  1  0  0  0  0
 11 35  1  0  0  0  0
 13 15  1  0  0  0  0
 13 36  1  0  0  0  0
 13 37  1  0  0  0  0
 14 17  1  0  0  0  0
 14 38  1  0  0  0  0
 14 39  1  0  0  0  0
 15 16  1  0  0  0  0
 15 40  1  0  0  0  0
 15 41  1  0  0  0  0
 16 19  1  0  0  0  0
 16 43  1  0  0  0  0
 16 44  1  0  0  0  0
 17 18  1  0  0  0  0
 18 20  1  0  0  0  0
 18 45  1  0  0  0  0
 18 46  1  0  0  0  0
 19 21  1  0  0  0  0
 19 47  1  0  0  0  0
 19 48  1  0  0  0  0
 20 22  1  0  0  0  0
 20 49  1  0  0  0  0
 20 50  1  0  0  0  0
 21 23  1  0  0  0  0
 21 51  1  0  0  0  0
 21 52  1  0  0  0  0
 22 24  1  0  0  0  0
 22 53  1  0  0  0  0
 22 54  1  0  0  0  0
 23 25  1  0  0  0  0
 23 55  1  0  0  0  0
 23 56  1  0  0  0  0
 24 26  1  0  0  0  0
 24 57  1  0  0  0  0
 24 58  1  0  0  0  0
 26 59  1  0  0  0  0
 26 60  1  0  0  0  0
 26 61  1  0  0  0  0
M  END
> <PUBCHEM_COMPOUND_CID>
25152066

> <PUBCHEM_COMPOUND_CANONICALIZED>
1

> <PUBCHEM_CACTVS_COMPLEXITY>
446

> <PUBCHEM_CACTVS_HBOND_ACCEPTOR>
5

> <PUBCHEM_CACTVS_HBOND_DONOR>
2

> <PUBCHEM_CACTVS_ROTATABLE_BOND>
15

> <PUBCHEM_CACTVS_SUBSKEYS>
AAADcfB4OAAAAAAAAAAAAAAAAAAAAYAAAAAAAAAAAAAAAAAAAAAAGgAACAAADRSggAICCAAAAgAIAICQCAAAAAAAAAAAAAEAAAAAEBYAAAAAQAAEIAAAAAGKzODOgAAAAAAAAAAAAAAAAAAAAIAADAAAAA==

> <PUBCHEM_IUPAC_OPENEYE_NAME>
8-[(1R,2R,3R)-3-hydroxy-5-oxo-2-(3-oxooctyl)cyclopentyl]octanoic acid

> <PUBCHEM_IUPAC_CAS_NAME>
8-[(1R,2R,3R)-3-hydroxy-5-oxo-2-(3-oxooctyl)cyclopentyl]octanoic acid

> <PUBCHEM_IUPAC_NAME_MARKUP>
8-[(1<I>R</I>,2<I>R</I>,3<I>R</I>)-3-hydroxy-5-oxo-2-(3-oxooctyl)cyclopentyl]octanoic acid

> <PUBCHEM_IUPAC_NAME>
8-[(1R,2R,3R)-3-hydroxy-5-oxo-2-(3-oxooctyl)cyclopentyl]octanoic acid

> <PUBCHEM_IUPAC_SYSTEMATIC_NAME>
8-[(1R,2R,3R)-3-oxidanyl-5-oxidanylidene-2-(3-oxidanylideneoctyl)cyclopentyl]octanoic acid

> <PUBCHEM_IUPAC_TRADITIONAL_NAME>
8-[(1R,2R,3R)-3-hydroxy-5-keto-2-(3-ketooctyl)cyclopentyl]caprylic acid

> <PUBCHEM_IUPAC_INCHI>
InChI=1S/C21H36O5/c1-2-3-7-10-16(22)13-14-18-17(19(23)15-20(18)24)11-8-5-4-6-9-12-21(25)26/h17-18,20,24H,2-15H2,1H3,(H,25,26)/t17-,18-,20-/m1/s1

> <PUBCHEM_IUPAC_INCHIKEY>
GYLJHKPBJAAUGR-QWFCFKBJSA-N

> <PUBCHEM_XLOGP3_AA>
3.7

> <PUBCHEM_EXACT_MASS>
368.25627424

> <PUBCHEM_MOLECULAR_FORMULA>
C21H36O5

> <PUBCHEM_MOLECULAR_WEIGHT>
368.5

> <PUBCHEM_OPENEYE_CAN_SMILES>
CCCCCC(=O)CCC1C(CC(=O)C1CCCCCCCC(=O)O)O

> <PUBCHEM_OPENEYE_ISO_SMILES>
CCCCCC(=O)CC[C@H]1[C@@H](CC(=O)[C@@H]1CCCCCCCC(=O)O)O

> <PUBCHEM_CACTVS_TPSA>
91.7

> <PUBCHEM_MONOISOTOPIC_WEIGHT>
368.25627424

> <PUBCHEM_TOTAL_CHARGE>
0

> <PUBCHEM_HEAVY_ATOM_COUNT>
26

> <PUBCHEM_ATOM_DEF_STEREO_COUNT>
3

> <PUBCHEM_ATOM_UDEF_STEREO_COUNT>
0

> <PUBCHEM_BOND_DEF_STEREO_COUNT>
0

> <PUBCHEM_BOND_UDEF_STEREO_COUNT>
0

> <PUBCHEM_ISOTOPIC_ATOM_COUNT>
0

> <PUBCHEM_COMPONENT_COUNT>
1

> <PUBCHEM_CACTVS_TAUTO_COUNT>
-1

> <PUBCHEM_COORDINATE_TYPE>
1
5
255

> <PUBCHEM_BONDANNOTATIONS>
8  1  6
6  11  5
7  10  6

$$$$
