 
  -OEChem-10192104052D

 24 25  0     0  0  0  0  0  0999 V2000
    2.9176   -1.3765    0.0000 O   0  0  0  0  0  0  0  0  0  0  0  0
    7.2641    0.1581    0.0000 O   0  0  0  0  0  0  0  0  0  0  0  0
    6.3981   -1.3419    0.0000 O   0  0  0  0  0  0  0  0  0  0  0  0
    4.6660   -0.3419    0.0000 N   0  0  0  0  0  0  0  0  0  0  0  0
    3.8000    1.1581    0.0000 C   0  0  0  0  0  0  0  0  0  0  0  0
    3.8000    0.1581    0.0000 C   0  0  0  0  0  0  0  0  0  0  0  0
    4.6660    1.6581    0.0000 C   0  0  0  0  0  0  0  0  0  0  0  0
    2.9061   -0.3766    0.0000 C   0  0  0  0  0  0  0  0  0  0  0  0
    2.9061    1.6927    0.0000 C   0  0  0  0  0  0  0  0  0  0  0  0
    5.5321    0.1581    0.0000 C   0  0  0  0  0  0  0  0  0  0  0  0
    5.5321    1.1581    0.0000 C   0  0  0  0  0  0  0  0  0  0  0  0
    2.0000    0.1372    0.0000 C   0  0  0  0  0  0  0  0  0  0  0  0
    2.0000    1.1789    0.0000 C   0  0  0  0  0  0  0  0  0  0  0  0
    6.3981   -0.3419    0.0000 C   0  0  0  0  0  0  0  0  0  0  0  0
    8.1301   -0.3419    0.0000 C   0  0  0  0  0  0  0  0  0  0  0  0
    4.6660    2.2781    0.0000 H   0  0  0  0  0  0  0  0  0  0  0  0
    2.9132    2.3127    0.0000 H   0  0  0  0  0  0  0  0  0  0  0  0
    6.0690    1.4681    0.0000 H   0  0  0  0  0  0  0  0  0  0  0  0
    1.4643   -0.1748    0.0000 H   0  0  0  0  0  0  0  0  0  0  0  0
    1.4643    1.4909    0.0000 H   0  0  0  0  0  0  0  0  0  0  0  0
    2.3843   -1.6927    0.0000 H   0  0  0  0  0  0  0  0  0  0  0  0
    7.8201   -0.8789    0.0000 H   0  0  0  0  0  0  0  0  0  0  0  0
    8.6671   -0.6519    0.0000 H   0  0  0  0  0  0  0  0  0  0  0  0
    8.4401    0.1950    0.0000 H   0  0  0  0  0  0  0  0  0  0  0  0
  1  8  1  0  0  0  0
  1 21  1  0  0  0  0
  2 14  1  0  0  0  0
  2 15  1  0  0  0  0
  3 14  2  0  0  0  0
  4  6  1  0  0  0  0
  4 10  2  0  0  0  0
  5  6  2  0  0  0  0
  5  7  1  0  0  0  0
  5  9  1  0  0  0  0
  6  8  1  0  0  0  0
  7 11  2  0  0  0  0
  7 16  1  0  0  0  0
  8 12  2  0  0  0  0
  9 13  2  0  0  0  0
  9 17  1  0  0  0  0
 10 11  1  0  0  0  0
 10 14  1  0  0  0  0
 11 18  1  0  0  0  0
 12 13  1  0  0  0  0
 12 19  1  0  0  0  0
 13 20  1  0  0  0  0
 15 22  1  0  0  0  0
 15 23  1  0  0  0  0
 15 24  1  0  0  0  0
M  END
> <PUBCHEM_COMPOUND_CID>
12336161

> <PUBCHEM_COMPOUND_CANONICALIZED>
1

> <PUBCHEM_CACTVS_COMPLEXITY>
244

> <PUBCHEM_CACTVS_HBOND_ACCEPTOR>
4

> <PUBCHEM_CACTVS_HBOND_DONOR>
1

> <PUBCHEM_CACTVS_ROTATABLE_BOND>
2

> <PUBCHEM_CACTVS_SUBSKEYS>
AAADccByMAAAAAAAAAAAAAAAAAAAAAAAAAA8QAAAAAAAAACx8AAAHgAACAAADAyBngIyzvIIFgCoAyTyTASCgCAnYiAImCG3bNgKJvLStbuFcQhkwBHY+YeYyLCOAAABAAACEAAAAAIAAAQgAAAAAAAAAA==

> <PUBCHEM_IUPAC_OPENEYE_NAME>
methyl 8-hydroxyquinoline-2-carboxylate

> <PUBCHEM_IUPAC_CAS_NAME>
8-hydroxy-2-quinolinecarboxylic acid methyl ester

> <PUBCHEM_IUPAC_NAME_MARKUP>
methyl 8-hydroxyquinoline-2-carboxylate

> <PUBCHEM_IUPAC_NAME>
methyl 8-hydroxyquinoline-2-carboxylate

> <PUBCHEM_IUPAC_SYSTEMATIC_NAME>
methyl 8-oxidanylquinoline-2-carboxylate

> <PUBCHEM_IUPAC_TRADITIONAL_NAME>
8-hydroxyquinaldic acid methyl ester

> <PUBCHEM_IUPAC_INCHI>
InChI=1S/C11H9NO3/c1-15-11(14)8-6-5-7-3-2-4-9(13)10(7)12-8/h2-6,13H,1H3

> <PUBCHEM_IUPAC_INCHIKEY>
DTYHRSIQPYNEJX-UHFFFAOYSA-N

> <PUBCHEM_XLOGP3_AA>
2

> <PUBCHEM_EXACT_MASS>
203.058243149

> <PUBCHEM_MOLECULAR_FORMULA>
C11H9NO3

> <PUBCHEM_MOLECULAR_WEIGHT>
203.19

> <PUBCHEM_OPENEYE_CAN_SMILES>
COC(=O)C1=NC2=C(C=CC=C2O)C=C1

> <PUBCHEM_OPENEYE_ISO_SMILES>
COC(=O)C1=NC2=C(C=CC=C2O)C=C1

> <PUBCHEM_CACTVS_TPSA>
59.4

> <PUBCHEM_MONOISOTOPIC_WEIGHT>
203.058243149

> <PUBCHEM_TOTAL_CHARGE>
0

> <PUBCHEM_HEAVY_ATOM_COUNT>
15

> <PUBCHEM_ATOM_DEF_STEREO_COUNT>
0

> <PUBCHEM_ATOM_UDEF_STEREO_COUNT>
0

> <PUBCHEM_BOND_DEF_STEREO_COUNT>
0

> <PUBCHEM_BOND_UDEF_STEREO_COUNT>
0

> <PUBCHEM_ISOTOPIC_ATOM_COUNT>
0

> <PUBCHEM_COMPONENT_COUNT>
1

> <PUBCHEM_CACTVS_TAUTO_COUNT>
-1

> <PUBCHEM_COORDINATE_TYPE>
1
5
255

> <PUBCHEM_BONDANNOTATIONS>
10  11  8
12  13  8
4  10  8
4  6  8
5  6  8
5  7  8
5  9  8
6  8  8
7  11  8
8  12  8
9  13  8

$$$$
