 
  -OEChem-10192104362D

 85 89  0     1  0  0  0  0  0999 V2000
    6.8671   -2.3556    0.0000 O   0  0  0  0  0  0  0  0  0  0  0  0
    5.1350   -0.3556    0.0000 O   0  0  0  0  0  0  0  0  0  0  0  0
    6.0010   -3.8556    0.0000 O   0  0  0  0  0  0  0  0  0  0  0  0
    6.8671   -0.3556    0.0000 O   0  0  0  0  0  0  0  0  0  0  0  0
    5.1350   -3.3556    0.0000 O   0  0  0  0  0  0  0  0  0  0  0  0
    3.4030   -2.3556    0.0000 O   0  0  0  0  0  0  0  0  0  0  0  0
    8.5991   -3.3556    0.0000 O   0  0  0  0  0  0  0  0  0  0  0  0
    8.5991   -5.3556    0.0000 O   0  0  0  0  0  0  0  0  0  0  0  0
    6.8671   -6.3556    0.0000 O   0  0  0  0  0  0  0  0  0  0  0  0
    2.5369   -0.8556    0.0000 O   0  0  0  0  0  0  0  0  0  0  0  0
    7.7331    2.1444    0.0000 O   0  0  0  0  0  0  0  0  0  0  0  0
    5.1350    0.6444    0.0000 O   0  0  0  0  0  0  0  0  0  0  0  0
    4.2308    2.1412    0.0000 O   0  0  0  0  0  0  0  0  0  0  0  0
    5.9889    5.2136    0.0000 O   0  0  0  0  0  0  0  0  0  0  0  0
   11.1972   -0.8556    0.0000 O   0  0  0  0  0  0  0  0  0  0  0  0
    6.0010   -1.8556    0.0000 C   0  0  2  0  0  0  0  0  0  0  0  0
    5.1350   -2.3556    0.0000 C   0  0  2  0  0  0  0  0  0  0  0  0
    4.2690   -1.8556    0.0000 C   0  0  1  0  0  0  0  0  0  0  0  0
    6.8671   -3.3556    0.0000 C   0  0  2  0  0  0  0  0  0  0  0  0
    6.0010   -0.8556    0.0000 C   0  0  1  0  0  0  0  0  0  0  0  0
    4.2690   -0.8556    0.0000 C   0  0  1  0  0  0  0  0  0  0  0  0
    7.7331   -3.8556    0.0000 C   0  0  1  0  0  0  0  0  0  0  0  0
    7.7331   -4.8556    0.0000 C   0  0  1  0  0  0  0  0  0  0  0  0
    6.8671   -5.3556    0.0000 C   0  0  2  0  0  0  0  0  0  0  0  0
    6.0010   -4.8556    0.0000 C   0  0  2  0  0  0  0  0  0  0  0  0
    3.4030   -0.3556    0.0000 C   0  0  0  0  0  0  0  0  0  0  0  0
    5.1350   -5.3556    0.0000 C   0  0  0  0  0  0  0  0  0  0  0  0
    6.8671    0.6444    0.0000 C   0  0  0  0  0  0  0  0  0  0  0  0
    7.7331    1.1444    0.0000 C   0  0  0  0  0  0  0  0  0  0  0  0
    6.0010    1.1444    0.0000 C   0  0  0  0  0  0  0  0  0  0  0  0
    6.0010    2.1444    0.0000 C   0  0  0  0  0  0  0  0  0  0  0  0
    6.8671    2.6444    0.0000 C   0  0  0  0  0  0  0  0  0  0  0  0
    8.5991    0.6444    0.0000 C   0  0  0  0  0  0  0  0  0  0  0  0
    6.8831    3.6859    0.0000 C   0  0  0  0  0  0  0  0  0  0  0  0
    5.0910    2.6512    0.0000 C   0  0  0  0  0  0  0  0  0  0  0  0
    5.9851    4.2136    0.0000 C   0  0  0  0  0  0  0  0  0  0  0  0
    7.7549    4.1758    0.0000 C   0  0  0  0  0  0  0  0  0  0  0  0
    5.0830    3.6928    0.0000 C   0  0  0  0  0  0  0  0  0  0  0  0
    8.5991   -0.3556    0.0000 C   0  0  0  0  0  0  0  0  0  0  0  0
    9.4651    1.1444    0.0000 C   0  0  0  0  0  0  0  0  0  0  0  0
    9.4651   -0.8556    0.0000 C   0  0  0  0  0  0  0  0  0  0  0  0
   10.3312    0.6444    0.0000 C   0  0  0  0  0  0  0  0  0  0  0  0
    7.7664    5.1758    0.0000 C   0  0  0  0  0  0  0  0  0  0  0  0
   10.3312   -0.3556    0.0000 C   0  0  0  0  0  0  0  0  0  0  0  0
    8.6382    5.6657    0.0000 C   0  0  0  0  0  0  0  0  0  0  0  0
    8.6497    6.6656    0.0000 C   0  0  0  0  0  0  0  0  0  0  0  0
    9.4984    5.1557    0.0000 C   0  0  0  0  0  0  0  0  0  0  0  0
    6.5380   -1.5456    0.0000 H   0  0  0  0  0  0  0  0  0  0  0  0
    4.5981   -2.6656    0.0000 H   0  0  0  0  0  0  0  0  0  0  0  0
    3.7320   -1.5456    0.0000 H   0  0  0  0  0  0  0  0  0  0  0  0
    7.4040   -3.0456    0.0000 H   0  0  0  0  0  0  0  0  0  0  0  0
    6.0010   -0.2356    0.0000 H   0  0  0  0  0  0  0  0  0  0  0  0
    4.2690   -0.2356    0.0000 H   0  0  0  0  0  0  0  0  0  0  0  0
    8.2700   -4.1656    0.0000 H   0  0  0  0  0  0  0  0  0  0  0  0
    7.7331   -5.4756    0.0000 H   0  0  0  0  0  0  0  0  0  0  0  0
    7.4040   -5.6656    0.0000 H   0  0  0  0  0  0  0  0  0  0  0  0
    5.4641   -4.5456    0.0000 H   0  0  0  0  0  0  0  0  0  0  0  0
    3.8015    0.1193    0.0000 H   0  0  0  0  0  0  0  0  0  0  0  0
    3.0044    0.1193    0.0000 H   0  0  0  0  0  0  0  0  0  0  0  0
    4.8250   -4.8187    0.0000 H   0  0  0  0  0  0  0  0  0  0  0  0
    4.5981   -5.6656    0.0000 H   0  0  0  0  0  0  0  0  0  0  0  0
    5.4450   -5.8926    0.0000 H   0  0  0  0  0  0  0  0  0  0  0  0
    4.5981   -3.6656    0.0000 H   0  0  0  0  0  0  0  0  0  0  0  0
    3.4030   -2.9756    0.0000 H   0  0  0  0  0  0  0  0  0  0  0  0
    9.1360   -3.6656    0.0000 H   0  0  0  0  0  0  0  0  0  0  0  0
    8.5991   -5.9756    0.0000 H   0  0  0  0  0  0  0  0  0  0  0  0
    6.3301   -6.6656    0.0000 H   0  0  0  0  0  0  0  0  0  0  0  0
    2.0000   -0.5456    0.0000 H   0  0  0  0  0  0  0  0  0  0  0  0
    7.9602    3.5908    0.0000 H   0  0  0  0  0  0  0  0  0  0  0  0
    8.3667    4.2764    0.0000 H   0  0  0  0  0  0  0  0  0  0  0  0
    4.5449    4.0007    0.0000 H   0  0  0  0  0  0  0  0  0  0  0  0
    8.0622   -0.6656    0.0000 H   0  0  0  0  0  0  0  0  0  0  0  0
    9.4651    1.7644    0.0000 H   0  0  0  0  0  0  0  0  0  0  0  0
    9.4651   -1.4756    0.0000 H   0  0  0  0  0  0  0  0  0  0  0  0
   10.8681    0.9544    0.0000 H   0  0  0  0  0  0  0  0  0  0  0  0
    7.2331    5.4919    0.0000 H   0  0  0  0  0  0  0  0  0  0  0  0
    3.6904    2.4450    0.0000 H   0  0  0  0  0  0  0  0  0  0  0  0
    5.4532    5.5257    0.0000 H   0  0  0  0  0  0  0  0  0  0  0  0
    9.2697    6.6585    0.0000 H   0  0  0  0  0  0  0  0  0  0  0  0
    8.6569    7.2856    0.0000 H   0  0  0  0  0  0  0  0  0  0  0  0
    8.0298    6.6728    0.0000 H   0  0  0  0  0  0  0  0  0  0  0  0
    9.1822    4.6224    0.0000 H   0  0  0  0  0  0  0  0  0  0  0  0
   10.0317    4.8395    0.0000 H   0  0  0  0  0  0  0  0  0  0  0  0
    9.8146    5.6890    0.0000 H   0  0  0  0  0  0  0  0  0  0  0  0
   11.1972   -1.4756    0.0000 H   0  0  0  0  0  0  0  0  0  0  0  0
 16  1  1  6  0  0  0
 19  1  1  1  0  0  0
  2 20  1  0  0  0  0
  2 21  1  0  0  0  0
  3 19  1  0  0  0  0
  3 25  1  0  0  0  0
 20  4  1  1  0  0  0
  4 28  1  0  0  0  0
 17  5  1  1  0  0  0
  5 63  1  0  0  0  0
 18  6  1  6  0  0  0
  6 64  1  0  0  0  0
 22  7  1  6  0  0  0
  7 65  1  0  0  0  0
 23  8  1  6  0  0  0
  8 66  1  0  0  0  0
 24  9  1  1  0  0  0
  9 67  1  0  0  0  0
 10 26  1  0  0  0  0
 10 68  1  0  0  0  0
 11 29  1  0  0  0  0
 11 32  1  0  0  0  0
 12 30  2  0  0  0  0
 13 35  1  0  0  0  0
 13 77  1  0  0  0  0
 14 36  1  0  0  0  0
 14 78  1  0  0  0  0
 15 44  1  0  0  0  0
 15 85  1  0  0  0  0
 16 17  1  0  0  0  0
 16 20  1  0  0  0  0
 16 48  1  0  0  0  0
 17 18  1  0  0  0  0
 17 49  1  0  0  0  0
 18 21  1  0  0  0  0
 18 50  1  0  0  0  0
 19 22  1  0  0  0  0
 19 51  1  0  0  0  0
 20 52  1  0  0  0  0
 21 26  1  1  0  0  0
 21 53  1  0  0  0  0
 22 23  1  0  0  0  0
 22 54  1  0  0  0  0
 23 24  1  0  0  0  0
 23 55  1  0  0  0  0
 24 25  1  0  0  0  0
 24 56  1  0  0  0  0
 25 27  1  6  0  0  0
 25 57  1  0  0  0  0
 26 58  1  0  0  0  0
 26 59  1  0  0  0  0
 27 60  1  0  0  0  0
 27 61  1  0  0  0  0
 27 62  1  0  0  0  0
 28 29  2  0  0  0  0
 28 30  1  0  0  0  0
 29 33  1  0  0  0  0
 30 31  1  0  0  0  0
 31 32  1  0  0  0  0
 31 35  2  0  0  0  0
 32 34  2  0  0  0  0
 33 39  2  0  0  0  0
 33 40  1  0  0  0  0
 34 36  1  0  0  0  0
 34 37  1  0  0  0  0
 35 38  1  0  0  0  0
 36 38  2  0  0  0  0
 37 43  1  0  0  0  0
 37 69  1  0  0  0  0
 37 70  1  0  0  0  0
 38 71  1  0  0  0  0
 39 41  1  0  0  0  0
 39 72  1  0  0  0  0
 40 42  2  0  0  0  0
 40 73  1  0  0  0  0
 41 44  2  0  0  0  0
 41 74  1  0  0  0  0
 42 44  1  0  0  0  0
 42 75  1  0  0  0  0
 43 45  2  0  0  0  0
 43 76  1  0  0  0  0
 45 46  1  0  0  0  0
 45 47  1  0  0  0  0
 46 79  1  0  0  0  0
 46 80  1  0  0  0  0
 46 81  1  0  0  0  0
 47 82  1  0  0  0  0
 47 83  1  0  0  0  0
 47 84  1  0  0  0  0
M  END
> <PUBCHEM_COMPOUND_CID>
5318411

> <PUBCHEM_COMPOUND_CANONICALIZED>
1

> <PUBCHEM_CACTVS_COMPLEXITY>
1150

> <PUBCHEM_CACTVS_HBOND_ACCEPTOR>
15

> <PUBCHEM_CACTVS_HBOND_DONOR>
9

> <PUBCHEM_CACTVS_ROTATABLE_BOND>
8

> <PUBCHEM_CACTVS_SUBSKEYS>
AAADcfB8PAAAAAAAAAAAAAAAAAAAAAAAAAA0aIECAAAAAACBQAAAGgAACAAADBSwmAMyDoAABgCIAqBSAAICCAAkIAAIiAFGCMgdNzaGNR6ieWCl4BUPuQfI7PzOIAACCAAIAABAAAQQABAAAAAAAAAAAA==

> <PUBCHEM_IUPAC_OPENEYE_NAME>
3-[(2S,3R,4S,5S,6R)-4,5-dihydroxy-6-(hydroxymethyl)-3-[(2S,3R,4R,5R,6S)-3,4,5-trihydroxy-6-methyl-tetrahydropyran-2-yl]oxy-tetrahydropyran-2-yl]oxy-5,7-dihydroxy-2-(4-hydroxyphenyl)-8-(3-methylbut-2-enyl)chromen-4-one

> <PUBCHEM_IUPAC_CAS_NAME>
3-[[(2S,3R,4S,5S,6R)-4,5-dihydroxy-6-(hydroxymethyl)-3-[[(2S,3R,4R,5R,6S)-3,4,5-trihydroxy-6-methyl-2-oxanyl]oxy]-2-oxanyl]oxy]-5,7-dihydroxy-2-(4-hydroxyphenyl)-8-(3-methylbut-2-enyl)-1-benzopyran-4-one

> <PUBCHEM_IUPAC_NAME_MARKUP>
3-[(2<I>S</I>,3<I>R</I>,4<I>S</I>,5<I>S</I>,6<I>R</I>)-4,5-dihydroxy-6-(hydroxymethyl)-3-[(2<I>S</I>,3<I>R</I>,4<I>R</I>,5<I>R</I>,6<I>S</I>)-3,4,5-trihydroxy-6-methyloxan-2-yl]oxyoxan-2-yl]oxy-5,7-dihydroxy-2-(4-hydroxyphenyl)-8-(3-methylbut-2-enyl)chromen-4-one

> <PUBCHEM_IUPAC_NAME>
3-[(2S,3R,4S,5S,6R)-4,5-dihydroxy-6-(hydroxymethyl)-3-[(2S,3R,4R,5R,6S)-3,4,5-trihydroxy-6-methyloxan-2-yl]oxyoxan-2-yl]oxy-5,7-dihydroxy-2-(4-hydroxyphenyl)-8-(3-methylbut-2-enyl)chromen-4-one

> <PUBCHEM_IUPAC_SYSTEMATIC_NAME>
3-[(2S,3R,4S,5S,6R)-6-(hydroxymethyl)-3-[(2S,3R,4R,5R,6S)-6-methyl-3,4,5-tris(oxidanyl)oxan-2-yl]oxy-4,5-bis(oxidanyl)oxan-2-yl]oxy-2-(4-hydroxyphenyl)-8-(3-methylbut-2-enyl)-5,7-bis(oxidanyl)chromen-4-one

> <PUBCHEM_IUPAC_TRADITIONAL_NAME>
3-[(2S,3R,4S,5S,6R)-4,5-dihydroxy-6-methylol-3-[(2S,3R,4R,5R,6S)-3,4,5-trihydroxy-6-methyl-tetrahydropyran-2-yl]oxy-tetrahydropyran-2-yl]oxy-5,7-dihydroxy-2-(4-hydroxyphenyl)-8-(3-methylbut-2-enyl)chromone

> <PUBCHEM_IUPAC_INCHI>
InChI=1S/C32H38O15/c1-12(2)4-9-16-17(35)10-18(36)20-23(39)29(27(45-28(16)20)14-5-7-15(34)8-6-14)46-32-30(25(41)22(38)19(11-33)44-32)47-31-26(42)24(40)21(37)13(3)43-31/h4-8,10,13,19,21-22,24-26,30-38,40-42H,9,11H2,1-3H3/t13-,19+,21-,22+,24+,25-,26+,30+,31-,32-/m0/s1

> <PUBCHEM_IUPAC_INCHIKEY>
CJJCKYUGKAVWRW-LBNASTDVSA-N

> <PUBCHEM_XLOGP3_AA>
1.5

> <PUBCHEM_EXACT_MASS>
662.22107050

> <PUBCHEM_MOLECULAR_FORMULA>
C32H38O15

> <PUBCHEM_MOLECULAR_WEIGHT>
662.6

> <PUBCHEM_OPENEYE_CAN_SMILES>
CC1C(C(C(C(O1)OC2C(C(C(OC2OC3=C(OC4=C(C(=CC(=C4C3=O)O)O)CC=C(C)C)C5=CC=C(C=C5)O)CO)O)O)O)O)O

> <PUBCHEM_OPENEYE_ISO_SMILES>
C[C@H]1[C@@H]([C@H]([C@H]([C@@H](O1)O[C@@H]2[C@H]([C@@H]([C@H](O[C@H]2OC3=C(OC4=C(C(=CC(=C4C3=O)O)O)CC=C(C)C)C5=CC=C(C=C5)O)CO)O)O)O)O)O

> <PUBCHEM_CACTVS_TPSA>
245

> <PUBCHEM_MONOISOTOPIC_WEIGHT>
662.22107050

> <PUBCHEM_TOTAL_CHARGE>
0

> <PUBCHEM_HEAVY_ATOM_COUNT>
47

> <PUBCHEM_ATOM_DEF_STEREO_COUNT>
10

> <PUBCHEM_ATOM_UDEF_STEREO_COUNT>
0

> <PUBCHEM_BOND_DEF_STEREO_COUNT>
0

> <PUBCHEM_BOND_UDEF_STEREO_COUNT>
0

> <PUBCHEM_ISOTOPIC_ATOM_COUNT>
0

> <PUBCHEM_COMPONENT_COUNT>
1

> <PUBCHEM_CACTVS_TAUTO_COUNT>
-1

> <PUBCHEM_COORDINATE_TYPE>
1
5
255

> <PUBCHEM_BONDANNOTATIONS>
16  1  6
19  1  5
11  29  8
11  32  8
21  26  5
25  27  6
28  29  8
28  30  8
30  31  8
31  32  8
31  35  8
32  34  8
33  39  8
33  40  8
34  36  8
35  38  8
36  38  8
39  41  8
20  4  5
40  42  8
41  44  8
42  44  8
17  5  5
18  6  6
22  7  6
23  8  6
24  9  5

$$$$
