 
  -OEChem-10192104432D

 41 43  0     1  0  0  0  0  0999 V2000
    6.0682   -0.1754    0.0000 O   0  0  0  0  0  0  0  0  0  0  0  0
    7.8003    1.8246    0.0000 O   0  0  0  0  0  0  0  0  0  0  0  0
    6.0682    2.8246    0.0000 O   0  0  0  0  0  0  0  0  0  0  0  0
    4.3198    2.8592    0.0000 O   0  0  0  0  0  0  0  0  0  0  0  0
    4.3198   -1.2100    0.0000 O   0  0  0  0  0  0  0  0  0  0  0  0
    8.6663   -2.6754    0.0000 O   0  0  0  0  0  0  0  0  0  0  0  0
   10.3984   -1.6754    0.0000 O   0  0  0  0  0  0  0  0  0  0  0  0
    2.5381   -0.1995    0.0000 O   0  0  0  0  0  0  0  0  0  0  0  0
    6.9343    0.3246    0.0000 C   0  0  3  0  0  0  0  0  0  0  0  0
    6.9343    1.3246    0.0000 C   0  0  3  0  0  0  0  0  0  0  0  0
    7.8003   -0.1754    0.0000 C   0  0  0  0  0  0  0  0  0  0  0  0
    6.0682    1.8246    0.0000 C   0  0  0  0  0  0  0  0  0  0  0  0
    5.2022    1.3246    0.0000 C   0  0  0  0  0  0  0  0  0  0  0  0
    5.2022    0.3246    0.0000 C   0  0  0  0  0  0  0  0  0  0  0  0
    7.8003   -1.1754    0.0000 C   0  0  0  0  0  0  0  0  0  0  0  0
    8.6663    0.3246    0.0000 C   0  0  0  0  0  0  0  0  0  0  0  0
    4.3083    1.8593    0.0000 C   0  0  0  0  0  0  0  0  0  0  0  0
    4.3083   -0.2101    0.0000 C   0  0  0  0  0  0  0  0  0  0  0  0
    8.6663   -1.6754    0.0000 C   0  0  0  0  0  0  0  0  0  0  0  0
    3.4022    0.3038    0.0000 C   0  0  0  0  0  0  0  0  0  0  0  0
    3.4022    1.3454    0.0000 C   0  0  0  0  0  0  0  0  0  0  0  0
    9.5323   -0.1754    0.0000 C   0  0  0  0  0  0  0  0  0  0  0  0
    9.5323   -1.1754    0.0000 C   0  0  0  0  0  0  0  0  0  0  0  0
    9.5323   -3.1754    0.0000 C   0  0  0  0  0  0  0  0  0  0  0  0
   11.2644   -1.1754    0.0000 C   0  0  0  0  0  0  0  0  0  0  0  0
    6.9343   -0.2954    0.0000 H   0  0  0  0  0  0  0  0  0  0  0  0
    6.9343    1.9446    0.0000 H   0  0  0  0  0  0  0  0  0  0  0  0
    7.2634   -1.4854    0.0000 H   0  0  0  0  0  0  0  0  0  0  0  0
    8.6663    0.9446    0.0000 H   0  0  0  0  0  0  0  0  0  0  0  0
    7.8003    2.4446    0.0000 H   0  0  0  0  0  0  0  0  0  0  0  0
    2.8665    1.6575    0.0000 H   0  0  0  0  0  0  0  0  0  0  0  0
   10.0693    0.1346    0.0000 H   0  0  0  0  0  0  0  0  0  0  0  0
    3.7865    3.1754    0.0000 H   0  0  0  0  0  0  0  0  0  0  0  0
    3.7865   -1.5262    0.0000 H   0  0  0  0  0  0  0  0  0  0  0  0
    2.0000    0.1084    0.0000 H   0  0  0  0  0  0  0  0  0  0  0  0
    9.2224   -3.7123    0.0000 H   0  0  0  0  0  0  0  0  0  0  0  0
   10.0693   -3.4854    0.0000 H   0  0  0  0  0  0  0  0  0  0  0  0
    9.8424   -2.6385    0.0000 H   0  0  0  0  0  0  0  0  0  0  0  0
   11.5744   -1.7123    0.0000 H   0  0  0  0  0  0  0  0  0  0  0  0
   11.8013   -0.8654    0.0000 H   0  0  0  0  0  0  0  0  0  0  0  0
   10.9544   -0.6385    0.0000 H   0  0  0  0  0  0  0  0  0  0  0  0
  1  9  1  0  0  0  0
  1 14  1  0  0  0  0
  2 10  1  0  0  0  0
  2 30  1  0  0  0  0
  3 12  2  0  0  0  0
  4 17  1  0  0  0  0
  4 33  1  0  0  0  0
  5 18  1  0  0  0  0
  5 34  1  0  0  0  0
  6 19  1  0  0  0  0
  6 24  1  0  0  0  0
  7 23  1  0  0  0  0
  7 25  1  0  0  0  0
  8 20  1  0  0  0  0
  8 35  1  0  0  0  0
  9 10  1  0  0  0  0
  9 11  1  0  0  0  0
  9 26  1  0  0  0  0
 10 12  1  0  0  0  0
 10 27  1  0  0  0  0
 11 15  2  0  0  0  0
 11 16  1  0  0  0  0
 12 13  1  0  0  0  0
 13 14  2  0  0  0  0
 13 17  1  0  0  0  0
 14 18  1  0  0  0  0
 15 19  1  0  0  0  0
 15 28  1  0  0  0  0
 16 22  2  0  0  0  0
 16 29  1  0  0  0  0
 17 21  2  0  0  0  0
 18 20  2  0  0  0  0
 19 23  2  0  0  0  0
 20 21  1  0  0  0  0
 21 31  1  0  0  0  0
 22 23  1  0  0  0  0
 22 32  1  0  0  0  0
 24 36  1  0  0  0  0
 24 37  1  0  0  0  0
 24 38  1  0  0  0  0
 25 39  1  0  0  0  0
 25 40  1  0  0  0  0
 25 41  1  0  0  0  0
M  END
> <PUBCHEM_COMPOUND_CID>
131835548

> <PUBCHEM_COMPOUND_CANONICALIZED>
1

> <PUBCHEM_CACTVS_COMPLEXITY>
485

> <PUBCHEM_CACTVS_HBOND_ACCEPTOR>
8

> <PUBCHEM_CACTVS_HBOND_DONOR>
4

> <PUBCHEM_CACTVS_ROTATABLE_BOND>
3

> <PUBCHEM_CACTVS_SUBSKEYS>
AAADceB4PAAAAAAAAAAAAAAAAAAAAAAAAAA0YIAAAAAAAACRQAAAGgAACAAADBSgmAIyBoAABgCIAqBSAAICCAAkIAAIiAFGiMgNNzaGNRqCeWOl4BULuQfK7PzOIQABCAAIQABCAAIQABCAAAAAAAAAAA==

> <PUBCHEM_IUPAC_OPENEYE_NAME>
2-(3,4-dimethoxyphenyl)-3,5,7,8-tetrahydroxy-chroman-4-one

> <PUBCHEM_IUPAC_CAS_NAME>
2-(3,4-dimethoxyphenyl)-3,5,7,8-tetrahydroxy-3,4-dihydro-2H-1-benzopyran-4-one

> <PUBCHEM_IUPAC_NAME_MARKUP>
2-(3,4-dimethoxyphenyl)-3,5,7,8-tetrahydroxy-2,3-dihydrochromen-4-one

> <PUBCHEM_IUPAC_NAME>
2-(3,4-dimethoxyphenyl)-3,5,7,8-tetrahydroxy-2,3-dihydrochromen-4-one

> <PUBCHEM_IUPAC_SYSTEMATIC_NAME>
2-(3,4-dimethoxyphenyl)-3,5,7,8-tetrakis(oxidanyl)-2,3-dihydrochromen-4-one

> <PUBCHEM_IUPAC_TRADITIONAL_NAME>
2-(3,4-dimethoxyphenyl)-3,5,7,8-tetrahydroxy-chroman-4-one

> <PUBCHEM_IUPAC_INCHI>
InChI=1S/C17H16O8/c1-23-10-4-3-7(5-11(10)24-2)16-15(22)14(21)12-8(18)6-9(19)13(20)17(12)25-16/h3-6,15-16,18-20,22H,1-2H3

> <PUBCHEM_IUPAC_INCHIKEY>
MMDPIDYMHDGIJU-UHFFFAOYSA-N

> <PUBCHEM_XLOGP3_AA>
1.8

> <PUBCHEM_EXACT_MASS>
348.08451746

> <PUBCHEM_MOLECULAR_FORMULA>
C17H16O8

> <PUBCHEM_MOLECULAR_WEIGHT>
348.3

> <PUBCHEM_OPENEYE_CAN_SMILES>
COC1=C(C=C(C=C1)C2C(C(=O)C3=C(O2)C(=C(C=C3O)O)O)O)OC

> <PUBCHEM_OPENEYE_ISO_SMILES>
COC1=C(C=C(C=C1)C2C(C(=O)C3=C(O2)C(=C(C=C3O)O)O)O)OC

> <PUBCHEM_CACTVS_TPSA>
126

> <PUBCHEM_MONOISOTOPIC_WEIGHT>
348.08451746

> <PUBCHEM_TOTAL_CHARGE>
0

> <PUBCHEM_HEAVY_ATOM_COUNT>
25

> <PUBCHEM_ATOM_DEF_STEREO_COUNT>
0

> <PUBCHEM_ATOM_UDEF_STEREO_COUNT>
2

> <PUBCHEM_BOND_DEF_STEREO_COUNT>
0

> <PUBCHEM_BOND_UDEF_STEREO_COUNT>
0

> <PUBCHEM_ISOTOPIC_ATOM_COUNT>
0

> <PUBCHEM_COMPONENT_COUNT>
1

> <PUBCHEM_CACTVS_TAUTO_COUNT>
-1

> <PUBCHEM_COORDINATE_TYPE>
1
5
255

> <PUBCHEM_BONDANNOTATIONS>
11  15  8
11  16  8
13  14  8
13  17  8
14  18  8
15  19  8
16  22  8
17  21  8
18  20  8
19  23  8
10  2  3
20  21  8
22  23  8
9  11  3

$$$$
