 
  -OEChem-10192103522D

117121  0     1  0  0  0  0  0999 V2000
    6.0010   -0.7500    0.0000 O   0  0  0  0  0  0  0  0  0  0  0  0
    8.5991   -0.2500    0.0000 O   0  0  0  0  0  0  0  0  0  0  0  0
    9.4651    1.2500    0.0000 O   0  0  0  0  0  0  0  0  0  0  0  0
    6.8671   -2.2500    0.0000 O   0  0  0  0  0  0  0  0  0  0  0  0
    6.0010   -4.7500    0.0000 O   0  0  0  0  0  0  0  0  0  0  0  0
    8.5991    3.7500    0.0000 O   0  0  0  0  0  0  0  0  0  0  0  0
    4.2690   -4.7500    0.0000 O   0  0  0  0  0  0  0  0  0  0  0  0
    6.0010    1.2500    0.0000 O   0  0  0  0  0  0  0  0  0  0  0  0
    4.2690   -3.7500    0.0000 O   0  0  0  0  0  0  0  0  0  0  0  0
    9.4651    5.2500    0.0000 O   0  0  0  0  0  0  0  0  0  0  0  0
   11.1972    2.2500    0.0000 O   0  0  0  0  0  0  0  0  0  0  0  0
    6.0010   -6.7500    0.0000 O   0  0  0  0  0  0  0  0  0  0  0  0
    4.2690   -7.7500    0.0000 O   0  0  0  0  0  0  0  0  0  0  0  0
    2.5369   -6.7500    0.0000 O   0  0  0  0  0  0  0  0  0  0  0  0
   12.0632    5.7500    0.0000 O   0  0  0  0  0  0  0  0  0  0  0  0
    9.4651    7.2500    0.0000 O   0  0  0  0  0  0  0  0  0  0  0  0
   12.9292    7.2500    0.0000 O   0  0  0  0  0  0  0  0  0  0  0  0
    5.1350   -8.2500    0.0000 O   0  0  0  0  0  0  0  0  0  0  0  0
    6.8671   -0.2500    0.0000 C   0  0  1  0  0  0  0  0  0  0  0  0
    6.0010   -3.7500    0.0000 C   0  0  1  0  0  0  0  0  0  0  0  0
    6.8671    0.7500    0.0000 C   0  0  2  0  0  0  0  0  0  0  0  0
    5.1350   -3.2500    0.0000 C   0  0  2  0  0  0  0  0  0  0  0  0
    7.7331   -0.7500    0.0000 C   0  0  1  0  0  0  0  0  0  0  0  0
    6.0010   -1.7500    0.0000 C   0  0  2  0  0  0  0  0  0  0  0  0
    9.4651    2.2500    0.0000 C   0  0  1  0  0  0  0  0  0  0  0  0
    7.7331    1.2500    0.0000 C   0  0  0  0  0  0  0  0  0  0  0  0
    8.5991    0.7500    0.0000 C   0  0  1  0  0  0  0  0  0  0  0  0
    5.1350   -2.2500    0.0000 C   0  0  0  0  0  0  0  0  0  0  0  0
    6.8671   -3.2500    0.0000 C   0  0  1  0  0  0  0  0  0  0  0  0
   10.3312    2.7500    0.0000 C   0  0  2  0  0  0  0  0  0  0  0  0
    8.5991    2.7500    0.0000 C   0  0  1  0  0  0  0  0  0  0  0  0
    5.1350   -5.2500    0.0000 C   0  0  2  0  0  0  0  0  0  0  0  0
   10.3312    3.7500    0.0000 C   0  0  0  0  0  0  0  0  0  0  0  0
    5.1350   -6.2500    0.0000 C   0  0  1  0  0  0  0  0  0  0  0  0
    9.4651    4.2500    0.0000 C   0  0  1  0  0  0  0  0  0  0  0  0
    4.2690   -6.7500    0.0000 C   0  0  2  0  0  0  0  0  0  0  0  0
    3.4030   -6.2500    0.0000 C   0  0  2  0  0  0  0  0  0  0  0  0
    3.4030   -5.2500    0.0000 C   0  0  1  0  0  0  0  0  0  0  0  0
    7.7331   -1.7500    0.0000 C   0  0  0  0  0  0  0  0  0  0  0  0
    7.7331   -3.7500    0.0000 C   0  0  0  0  0  0  0  0  0  0  0  0
   10.3312    5.7500    0.0000 C   0  0  1  0  0  0  0  0  0  0  0  0
    7.7331    2.2500    0.0000 C   0  0  0  0  0  0  0  0  0  0  0  0
   10.3312    6.7500    0.0000 C   0  0  1  0  0  0  0  0  0  0  0  0
   11.1972    5.2500    0.0000 C   0  0  1  0  0  0  0  0  0  0  0  0
    2.5369   -4.7500    0.0000 C   0  0  0  0  0  0  0  0  0  0  0  0
   11.1972    7.2500    0.0000 C   0  0  0  0  0  0  0  0  0  0  0  0
    6.0010    2.2500    0.0000 C   0  0  0  0  0  0  0  0  0  0  0  0
    3.4030   -3.2500    0.0000 C   0  0  0  0  0  0  0  0  0  0  0  0
   12.0632    2.7500    0.0000 C   0  0  0  0  0  0  0  0  0  0  0  0
   11.1972    4.2500    0.0000 C   0  0  0  0  0  0  0  0  0  0  0  0
   12.0632    6.7500    0.0000 C   0  0  0  0  0  0  0  0  0  0  0  0
    3.4030   -8.2500    0.0000 C   0  0  0  0  0  0  0  0  0  0  0  0
    6.0010   -7.7500    0.0000 C   0  0  0  0  0  0  0  0  0  0  0  0
    9.4651    8.2500    0.0000 C   0  0  0  0  0  0  0  0  0  0  0  0
    6.8671   -8.2500    0.0000 C   0  0  0  0  0  0  0  0  0  0  0  0
    6.8671   -0.8700    0.0000 H   0  0  0  0  0  0  0  0  0  0  0  0
    6.5380   -4.0600    0.0000 H   0  0  0  0  0  0  0  0  0  0  0  0
    6.3301    0.4400    0.0000 H   0  0  0  0  0  0  0  0  0  0  0  0
    5.1350   -3.8700    0.0000 H   0  0  0  0  0  0  0  0  0  0  0  0
    5.4641   -1.4400    0.0000 H   0  0  0  0  0  0  0  0  0  0  0  0
    8.2700   -1.0600    0.0000 H   0  0  0  0  0  0  0  0  0  0  0  0
   10.0021    1.9400    0.0000 H   0  0  0  0  0  0  0  0  0  0  0  0
    8.1316    1.7250    0.0000 H   0  0  0  0  0  0  0  0  0  0  0  0
    7.3346    1.7250    0.0000 H   0  0  0  0  0  0  0  0  0  0  0  0
    8.5991    1.3700    0.0000 H   0  0  0  0  0  0  0  0  0  0  0  0
    4.9230   -1.6674    0.0000 H   0  0  0  0  0  0  0  0  0  0  0  0
    4.5244   -2.3577    0.0000 H   0  0  0  0  0  0  0  0  0  0  0  0
    7.4040   -2.9400    0.0000 H   0  0  0  0  0  0  0  0  0  0  0  0
   10.8681    3.0600    0.0000 H   0  0  0  0  0  0  0  0  0  0  0  0
    8.0622    3.0600    0.0000 H   0  0  0  0  0  0  0  0  0  0  0  0
    5.1350   -4.6300    0.0000 H   0  0  0  0  0  0  0  0  0  0  0  0
   10.9417    3.6423    0.0000 H   0  0  0  0  0  0  0  0  0  0  0  0
   10.5432    4.3326    0.0000 H   0  0  0  0  0  0  0  0  0  0  0  0
    5.1350   -6.8700    0.0000 H   0  0  0  0  0  0  0  0  0  0  0  0
   10.0021    4.5600    0.0000 H   0  0  0  0  0  0  0  0  0  0  0  0
    3.7320   -7.0600    0.0000 H   0  0  0  0  0  0  0  0  0  0  0  0
    3.4030   -6.8700    0.0000 H   0  0  0  0  0  0  0  0  0  0  0  0
    3.4030   -4.6300    0.0000 H   0  0  0  0  0  0  0  0  0  0  0  0
    7.1131   -1.7500    0.0000 H   0  0  0  0  0  0  0  0  0  0  0  0
    7.7331   -2.3700    0.0000 H   0  0  0  0  0  0  0  0  0  0  0  0
    8.3531   -1.7500    0.0000 H   0  0  0  0  0  0  0  0  0  0  0  0
    7.4231   -4.2869    0.0000 H   0  0  0  0  0  0  0  0  0  0  0  0
    8.2700   -4.0600    0.0000 H   0  0  0  0  0  0  0  0  0  0  0  0
    8.0431   -3.2131    0.0000 H   0  0  0  0  0  0  0  0  0  0  0  0
    9.7942    6.0600    0.0000 H   0  0  0  0  0  0  0  0  0  0  0  0
    7.4231    2.7869    0.0000 H   0  0  0  0  0  0  0  0  0  0  0  0
    7.1962    1.9400    0.0000 H   0  0  0  0  0  0  0  0  0  0  0  0
    8.0431    1.7131    0.0000 H   0  0  0  0  0  0  0  0  0  0  0  0
   10.3312    7.3700    0.0000 H   0  0  0  0  0  0  0  0  0  0  0  0
   11.7341    4.9400    0.0000 H   0  0  0  0  0  0  0  0  0  0  0  0
    2.8469   -4.2131    0.0000 H   0  0  0  0  0  0  0  0  0  0  0  0
    2.0000   -4.4400    0.0000 H   0  0  0  0  0  0  0  0  0  0  0  0
    2.2269   -5.2869    0.0000 H   0  0  0  0  0  0  0  0  0  0  0  0
   11.5957    7.7250    0.0000 H   0  0  0  0  0  0  0  0  0  0  0  0
   10.7987    7.7250    0.0000 H   0  0  0  0  0  0  0  0  0  0  0  0
    6.6210    2.2500    0.0000 H   0  0  0  0  0  0  0  0  0  0  0  0
    6.0010    2.8700    0.0000 H   0  0  0  0  0  0  0  0  0  0  0  0
    5.3810    2.2500    0.0000 H   0  0  0  0  0  0  0  0  0  0  0  0
    2.0000   -6.4400    0.0000 H   0  0  0  0  0  0  0  0  0  0  0  0
    3.7130   -2.7131    0.0000 H   0  0  0  0  0  0  0  0  0  0  0  0
    2.8660   -2.9400    0.0000 H   0  0  0  0  0  0  0  0  0  0  0  0
    3.0930   -3.7869    0.0000 H   0  0  0  0  0  0  0  0  0  0  0  0
   12.3732    2.2131    0.0000 H   0  0  0  0  0  0  0  0  0  0  0  0
   12.6002    3.0600    0.0000 H   0  0  0  0  0  0  0  0  0  0  0  0
   11.7532    3.2869    0.0000 H   0  0  0  0  0  0  0  0  0  0  0  0
   10.5772    4.2500    0.0000 H   0  0  0  0  0  0  0  0  0  0  0  0
   11.1972    3.6300    0.0000 H   0  0  0  0  0  0  0  0  0  0  0  0
   11.8172    4.2500    0.0000 H   0  0  0  0  0  0  0  0  0  0  0  0
    3.0930   -7.7131    0.0000 H   0  0  0  0  0  0  0  0  0  0  0  0
    2.8660   -8.5600    0.0000 H   0  0  0  0  0  0  0  0  0  0  0  0
    3.7130   -8.7869    0.0000 H   0  0  0  0  0  0  0  0  0  0  0  0
   10.0851    8.2500    0.0000 H   0  0  0  0  0  0  0  0  0  0  0  0
    9.4651    8.8700    0.0000 H   0  0  0  0  0  0  0  0  0  0  0  0
    8.8451    8.2500    0.0000 H   0  0  0  0  0  0  0  0  0  0  0  0
    6.5571   -8.7869    0.0000 H   0  0  0  0  0  0  0  0  0  0  0  0
    7.4040   -8.5600    0.0000 H   0  0  0  0  0  0  0  0  0  0  0  0
    7.1771   -7.7131    0.0000 H   0  0  0  0  0  0  0  0  0  0  0  0
 19  1  1  1  0  0  0
 24  1  1  6  0  0  0
  2 23  1  0  0  0  0
  2 27  1  0  0  0  0
 25  3  1  6  0  0  0
 27  3  1  6  0  0  0
  4 24  1  0  0  0  0
  4 29  1  0  0  0  0
 20  5  1  1  0  0  0
 32  5  1  1  0  0  0
  6 31  1  0  0  0  0
  6 35  1  0  0  0  0
  7 32  1  0  0  0  0
  7 38  1  0  0  0  0
 21  8  1  1  0  0  0
  8 47  1  0  0  0  0
 22  9  1  1  0  0  0
  9 48  1  0  0  0  0
 35 10  1  1  0  0  0
 41 10  1  1  0  0  0
 30 11  1  6  0  0  0
 11 49  1  0  0  0  0
 34 12  1  6  0  0  0
 12 53  1  0  0  0  0
 36 13  1  1  0  0  0
 13 52  1  0  0  0  0
 37 14  1  1  0  0  0
 14 99  1  0  0  0  0
 15 44  1  0  0  0  0
 15 51  1  0  0  0  0
 43 16  1  6  0  0  0
 16 54  1  0  0  0  0
 17 51  2  0  0  0  0
 18 53  2  0  0  0  0
 19 21  1  0  0  0  0
 19 23  1  0  0  0  0
 19 56  1  0  0  0  0
 20 22  1  0  0  0  0
 20 29  1  0  0  0  0
 20 57  1  0  0  0  0
 21 26  1  0  0  0  0
 21 58  1  0  0  0  0
 22 28  1  0  0  0  0
 22 59  1  0  0  0  0
 23 39  1  6  0  0  0
 23 61  1  0  0  0  0
 24 28  1  0  0  0  0
 24 60  1  0  0  0  0
 25 30  1  0  0  0  0
 25 31  1  0  0  0  0
 25 62  1  0  0  0  0
 26 27  1  0  0  0  0
 26 63  1  0  0  0  0
 26 64  1  0  0  0  0
 27 65  1  0  0  0  0
 28 66  1  0  0  0  0
 28 67  1  0  0  0  0
 29 40  1  6  0  0  0
 29 68  1  0  0  0  0
 30 33  1  0  0  0  0
 30 69  1  0  0  0  0
 31 42  1  1  0  0  0
 31 70  1  0  0  0  0
 32 34  1  0  0  0  0
 32 71  1  0  0  0  0
 33 35  1  0  0  0  0
 33 72  1  0  0  0  0
 33 73  1  0  0  0  0
 34 36  1  0  0  0  0
 34 74  1  0  0  0  0
 35 75  1  0  0  0  0
 36 37  1  0  0  0  0
 36 76  1  0  0  0  0
 37 38  1  0  0  0  0
 37 77  1  0  0  0  0
 38 45  1  1  0  0  0
 38 78  1  0  0  0  0
 39 79  1  0  0  0  0
 39 80  1  0  0  0  0
 39 81  1  0  0  0  0
 40 82  1  0  0  0  0
 40 83  1  0  0  0  0
 40 84  1  0  0  0  0
 41 43  1  0  0  0  0
 41 44  1  0  0  0  0
 41 85  1  0  0  0  0
 42 86  1  0  0  0  0
 42 87  1  0  0  0  0
 42 88  1  0  0  0  0
 43 46  1  0  0  0  0
 43 89  1  0  0  0  0
 44 50  1  6  0  0  0
 44 90  1  0  0  0  0
 45 91  1  0  0  0  0
 45 92  1  0  0  0  0
 45 93  1  0  0  0  0
 46 51  1  0  0  0  0
 46 94  1  0  0  0  0
 46 95  1  0  0  0  0
 47 96  1  0  0  0  0
 47 97  1  0  0  0  0
 47 98  1  0  0  0  0
 48100  1  0  0  0  0
 48101  1  0  0  0  0
 48102  1  0  0  0  0
 49103  1  0  0  0  0
 49104  1  0  0  0  0
 49105  1  0  0  0  0
 50106  1  0  0  0  0
 50107  1  0  0  0  0
 50108  1  0  0  0  0
 52109  1  0  0  0  0
 52110  1  0  0  0  0
 52111  1  0  0  0  0
 53 55  1  0  0  0  0
 54112  1  0  0  0  0
 54113  1  0  0  0  0
 54114  1  0  0  0  0
 55115  1  0  0  0  0
 55116  1  0  0  0  0
 55117  1  0  0  0  0
M  END
> <PUBCHEM_COMPOUND_CID>
131844296

> <PUBCHEM_COMPOUND_CANONICALIZED>
1

> <PUBCHEM_CACTVS_COMPLEXITY>
1230

> <PUBCHEM_CACTVS_HBOND_ACCEPTOR>
18

> <PUBCHEM_CACTVS_HBOND_DONOR>
1

> <PUBCHEM_CACTVS_ROTATABLE_BOND>
15

> <PUBCHEM_CACTVS_SUBSKEYS>
AAADcfB8PgAAAAAAAAAAAAAAAAAAAAAAAAAkSJEiQAAAAAAAAAAAGgAACAAACBSwgAMCCAAABgAIAACQCAAAAAAAAAAAAAEAAAAREBYAAAAiQAAFIAAHAAHKbAxAAAAAAAAAAAAAAAAAAAAAAAAAAAAAAA==

> <PUBCHEM_IUPAC_OPENEYE_NAME>
[(2S,3R,4S,5S,6R)-5-hydroxy-4-methoxy-2-[(2R,3R,4S,6S)-4-methoxy-6-[(2R,3R,4S,6S)-4-methoxy-6-[(2R,3R,4S,6S)-4-methoxy-6-[(2R,3R,4R)-4-methoxy-2-methyl-6-oxo-tetrahydropyran-3-yl]oxy-2-methyl-tetrahydropyran-3-yl]oxy-2-methyl-tetrahydropyran-3-yl]oxy-2-methyl-tetrahydropyran-3-yl]oxy-6-methyl-tetrahydropyran-3-yl] acetate

> <PUBCHEM_IUPAC_CAS_NAME>
acetic acid [(2S,3R,4S,5S,6R)-5-hydroxy-4-methoxy-2-[[(2R,3R,4S,6S)-4-methoxy-6-[[(2R,3R,4S,6S)-4-methoxy-6-[[(2R,3R,4S,6S)-4-methoxy-6-[[(2R,3R,4R)-4-methoxy-2-methyl-6-oxo-3-oxanyl]oxy]-2-methyl-3-oxanyl]oxy]-2-methyl-3-oxanyl]oxy]-2-methyl-3-oxanyl]oxy]-6-methyl-3-oxanyl] ester

> <PUBCHEM_IUPAC_NAME_MARKUP>
[(2<I>S</I>,3<I>R</I>,4<I>S</I>,5<I>S</I>,6<I>R</I>)-5-hydroxy-4-methoxy-2-[(2<I>R</I>,3<I>R</I>,4<I>S</I>,6<I>S</I>)-4-methoxy-6-[(2<I>R</I>,3<I>R</I>,4<I>S</I>,6<I>S</I>)-4-methoxy-6-[(2<I>R</I>,3<I>R</I>,4<I>S</I>,6<I>S</I>)-4-methoxy-6-[(2<I>R</I>,3<I>R</I>,4<I>R</I>)-4-methoxy-2-methyl-6-oxooxan-3-yl]oxy-2-methyloxan-3-yl]oxy-2-methyloxan-3-yl]oxy-2-methyloxan-3-yl]oxy-6-methyloxan-3-yl] acetate

> <PUBCHEM_IUPAC_NAME>
[(2S,3R,4S,5S,6R)-5-hydroxy-4-methoxy-2-[(2R,3R,4S,6S)-4-methoxy-6-[(2R,3R,4S,6S)-4-methoxy-6-[(2R,3R,4S,6S)-4-methoxy-6-[(2R,3R,4R)-4-methoxy-2-methyl-6-oxooxan-3-yl]oxy-2-methyloxan-3-yl]oxy-2-methyloxan-3-yl]oxy-2-methyloxan-3-yl]oxy-6-methyloxan-3-yl] acetate

> <PUBCHEM_IUPAC_SYSTEMATIC_NAME>
[(2S,3R,4S,5S,6R)-4-methoxy-2-[(2R,3R,4S,6S)-4-methoxy-6-[(2R,3R,4S,6S)-4-methoxy-6-[(2R,3R,4S,6S)-4-methoxy-6-[(2R,3R,4R)-4-methoxy-2-methyl-6-oxidanylidene-oxan-3-yl]oxy-2-methyl-oxan-3-yl]oxy-2-methyl-oxan-3-yl]oxy-2-methyl-oxan-3-yl]oxy-6-methyl-5-oxidanyl-oxan-3-yl] ethanoate

> <PUBCHEM_IUPAC_TRADITIONAL_NAME>
acetic acid [(2S,3R,4S,5S,6R)-5-hydroxy-2-[(2R,3R,4S,6S)-6-[(2R,3R,4S,6S)-6-[(2R,3R,4S,6S)-6-[(2R,3R,4R)-6-keto-4-methoxy-2-methyl-tetrahydropyran-3-yl]oxy-4-methoxy-2-methyl-tetrahydropyran-3-yl]oxy-4-methoxy-2-methyl-tetrahydropyran-3-yl]oxy-4-methoxy-2-methyl-tetrahydropyran-3-yl]oxy-4-methoxy-6-methyl-tetrahydropyran-3-yl] ester

> <PUBCHEM_IUPAC_INCHI>
InChI=1S/C37H62O18/c1-16-30(40)35(45-11)36(51-21(6)38)37(50-16)55-34-20(5)49-29(15-25(34)44-10)54-33-19(4)48-28(14-24(33)43-9)53-32-18(3)47-27(13-23(32)42-8)52-31-17(2)46-26(39)12-22(31)41-7/h16-20,22-25,27-37,40H,12-15H2,1-11H3/t16-,17-,18-,19-,20-,22-,23+,24+,25+,27+,28+,29+,30+,31-,32-,33-,34-,35+,36-,37+/m1/s1

> <PUBCHEM_IUPAC_INCHIKEY>
XIRFSYHTNJWUET-UJEHNDPWSA-N

> <PUBCHEM_XLOGP3_AA>
0.8

> <PUBCHEM_EXACT_MASS>
794.39361512

> <PUBCHEM_MOLECULAR_FORMULA>
C37H62O18

> <PUBCHEM_MOLECULAR_WEIGHT>
794.9

> <PUBCHEM_OPENEYE_CAN_SMILES>
CC1C(C(C(C(O1)OC2C(OC(CC2OC)OC3C(OC(CC3OC)OC4C(OC(CC4OC)OC5C(OC(=O)CC5OC)C)C)C)C)OC(=O)C)OC)O

> <PUBCHEM_OPENEYE_ISO_SMILES>
C[C@@H]1[C@@H]([C@@H]([C@H]([C@@H](O1)O[C@@H]2[C@H](O[C@H](C[C@@H]2OC)O[C@@H]3[C@H](O[C@H](C[C@@H]3OC)O[C@@H]4[C@H](O[C@H](C[C@@H]4OC)O[C@@H]5[C@H](OC(=O)C[C@H]5OC)C)C)C)C)OC(=O)C)OC)O

> <PUBCHEM_CACTVS_TPSA>
193

> <PUBCHEM_MONOISOTOPIC_WEIGHT>
794.39361512

> <PUBCHEM_TOTAL_CHARGE>
0

> <PUBCHEM_HEAVY_ATOM_COUNT>
55

> <PUBCHEM_ATOM_DEF_STEREO_COUNT>
20

> <PUBCHEM_ATOM_UDEF_STEREO_COUNT>
0

> <PUBCHEM_BOND_DEF_STEREO_COUNT>
0

> <PUBCHEM_BOND_UDEF_STEREO_COUNT>
0

> <PUBCHEM_ISOTOPIC_ATOM_COUNT>
0

> <PUBCHEM_COMPONENT_COUNT>
1

> <PUBCHEM_CACTVS_TAUTO_COUNT>
-1

> <PUBCHEM_COORDINATE_TYPE>
1
5
255

> <PUBCHEM_BONDANNOTATIONS>
19  1  5
24  1  6
35  10  5
41  10  5
30  11  6
34  12  6
36  13  5
37  14  5
43  16  6
23  39  6
29  40  6
25  3  6
27  3  6
31  42  5
38  45  5
44  50  6
20  5  5
32  5  5
21  8  5
22  9  5

$$$$
