 
  -OEChem-10192104122D

 70 70  0     1  0  0  0  0  0999 V2000
    5.4641    0.7500    0.0000 O   0  0  0  0  0  0  0  0  0  0  0  0
    7.1962    2.7500    0.0000 O   0  0  0  0  0  0  0  0  0  0  0  0
    5.4641    3.7500    0.0000 O   0  0  0  0  0  0  0  0  0  0  0  0
    3.7320    2.7500    0.0000 O   0  0  0  0  0  0  0  0  0  0  0  0
    3.7320   -0.2500    0.0000 O   0  0  0  0  0  0  0  0  0  0  0  0
    8.0622    1.2500    0.0000 O   0  0  0  0  0  0  0  0  0  0  0  0
    7.1962    3.7500    0.0000 O   0  0  0  0  0  0  0  0  0  0  0  0
    2.8660    1.2500    0.0000 O   0  0  0  0  0  0  0  0  0  0  0  0
    2.0000   -0.2500    0.0000 O   0  0  0  0  0  0  0  0  0  0  0  0
    6.3301    1.2500    0.0000 C   0  0  3  0  0  0  0  0  0  0  0  0
    6.3301    2.2500    0.0000 C   0  0  1  0  0  0  0  0  0  0  0  0
    5.4641    2.7500    0.0000 C   0  0  2  0  0  0  0  0  0  0  0  0
    4.5981    2.2500    0.0000 C   0  0  2  0  0  0  0  0  0  0  0  0
    4.5981    1.2500    0.0000 C   0  0  1  0  0  0  0  0  0  0  0  0
    7.1962    0.7500    0.0000 C   0  0  0  0  0  0  0  0  0  0  0  0
    7.1962   -0.2500    0.0000 C   0  0  0  0  0  0  0  0  0  0  0  0
    3.7320    0.7500    0.0000 C   0  0  0  0  0  0  0  0  0  0  0  0
    8.0622   -0.7500    0.0000 C   0  0  0  0  0  0  0  0  0  0  0  0
    8.0622   -1.7500    0.0000 C   0  0  0  0  0  0  0  0  0  0  0  0
    8.9282   -2.2500    0.0000 C   0  0  0  0  0  0  0  0  0  0  0  0
    8.0622    2.2500    0.0000 C   0  0  0  0  0  0  0  0  0  0  0  0
    6.3301    4.2500    0.0000 C   0  0  0  0  0  0  0  0  0  0  0  0
    2.8660    2.2500    0.0000 C   0  0  0  0  0  0  0  0  0  0  0  0
    8.9282   -3.2500    0.0000 C   0  0  0  0  0  0  0  0  0  0  0  0
    9.7942   -3.7500    0.0000 C   0  0  0  0  0  0  0  0  0  0  0  0
    8.9282    2.7500    0.0000 C   0  0  0  0  0  0  0  0  0  0  0  0
    6.3301    5.2500    0.0000 C   0  0  0  0  0  0  0  0  0  0  0  0
    2.0000    2.7500    0.0000 C   0  0  0  0  0  0  0  0  0  0  0  0
    2.8660   -0.7500    0.0000 C   0  0  0  0  0  0  0  0  0  0  0  0
    9.7942   -4.7500    0.0000 C   0  0  0  0  0  0  0  0  0  0  0  0
    2.8660   -1.7500    0.0000 C   0  0  0  0  0  0  0  0  0  0  0  0
   10.6603   -5.2500    0.0000 C   0  0  0  0  0  0  0  0  0  0  0  0
    6.3301    0.6300    0.0000 H   0  0  0  0  0  0  0  0  0  0  0  0
    6.8671    1.9400    0.0000 H   0  0  0  0  0  0  0  0  0  0  0  0
    6.0010    3.0600    0.0000 H   0  0  0  0  0  0  0  0  0  0  0  0
    4.5981    2.8700    0.0000 H   0  0  0  0  0  0  0  0  0  0  0  0
    4.5981    0.6300    0.0000 H   0  0  0  0  0  0  0  0  0  0  0  0
    7.8067    0.6423    0.0000 H   0  0  0  0  0  0  0  0  0  0  0  0
    7.4082    1.3326    0.0000 H   0  0  0  0  0  0  0  0  0  0  0  0
    6.5856   -0.1423    0.0000 H   0  0  0  0  0  0  0  0  0  0  0  0
    6.9841   -0.8326    0.0000 H   0  0  0  0  0  0  0  0  0  0  0  0
    3.5200    1.3326    0.0000 H   0  0  0  0  0  0  0  0  0  0  0  0
    3.1215    0.6423    0.0000 H   0  0  0  0  0  0  0  0  0  0  0  0
    8.6728   -0.8577    0.0000 H   0  0  0  0  0  0  0  0  0  0  0  0
    8.2742   -0.1674    0.0000 H   0  0  0  0  0  0  0  0  0  0  0  0
    7.4516   -1.6423    0.0000 H   0  0  0  0  0  0  0  0  0  0  0  0
    7.8501   -2.3326    0.0000 H   0  0  0  0  0  0  0  0  0  0  0  0
    9.5388   -2.3577    0.0000 H   0  0  0  0  0  0  0  0  0  0  0  0
    9.1403   -1.6674    0.0000 H   0  0  0  0  0  0  0  0  0  0  0  0
    8.3176   -3.1423    0.0000 H   0  0  0  0  0  0  0  0  0  0  0  0
    8.7162   -3.8326    0.0000 H   0  0  0  0  0  0  0  0  0  0  0  0
   10.4048   -3.8577    0.0000 H   0  0  0  0  0  0  0  0  0  0  0  0
   10.0063   -3.1674    0.0000 H   0  0  0  0  0  0  0  0  0  0  0  0
    9.2382    2.2131    0.0000 H   0  0  0  0  0  0  0  0  0  0  0  0
    9.4651    3.0600    0.0000 H   0  0  0  0  0  0  0  0  0  0  0  0
    8.6182    3.2869    0.0000 H   0  0  0  0  0  0  0  0  0  0  0  0
    6.9501    5.2500    0.0000 H   0  0  0  0  0  0  0  0  0  0  0  0
    6.3301    5.8700    0.0000 H   0  0  0  0  0  0  0  0  0  0  0  0
    5.7101    5.2500    0.0000 H   0  0  0  0  0  0  0  0  0  0  0  0
    2.3100    3.2869    0.0000 H   0  0  0  0  0  0  0  0  0  0  0  0
    1.4631    3.0600    0.0000 H   0  0  0  0  0  0  0  0  0  0  0  0
    1.6900    2.2131    0.0000 H   0  0  0  0  0  0  0  0  0  0  0  0
    9.1836   -4.6423    0.0000 H   0  0  0  0  0  0  0  0  0  0  0  0
    9.5822   -5.3326    0.0000 H   0  0  0  0  0  0  0  0  0  0  0  0
    2.2460   -1.7500    0.0000 H   0  0  0  0  0  0  0  0  0  0  0  0
    2.8660   -2.3700    0.0000 H   0  0  0  0  0  0  0  0  0  0  0  0
    3.4860   -1.7500    0.0000 H   0  0  0  0  0  0  0  0  0  0  0  0
   10.3503   -5.7869    0.0000 H   0  0  0  0  0  0  0  0  0  0  0  0
   11.1972   -5.5600    0.0000 H   0  0  0  0  0  0  0  0  0  0  0  0
   10.9703   -4.7131    0.0000 H   0  0  0  0  0  0  0  0  0  0  0  0
  1 10  1  0  0  0  0
  1 14  1  0  0  0  0
 11  2  1  1  0  0  0
  2 21  1  0  0  0  0
 12  3  1  6  0  0  0
  3 22  1  0  0  0  0
 13  4  1  6  0  0  0
  4 23  1  0  0  0  0
  5 17  1  0  0  0  0
  5 29  1  0  0  0  0
  6 21  2  0  0  0  0
  7 22  2  0  0  0  0
  8 23  2  0  0  0  0
  9 29  2  0  0  0  0
 10 11  1  0  0  0  0
 10 15  1  0  0  0  0
 10 33  1  0  0  0  0
 11 12  1  0  0  0  0
 11 34  1  0  0  0  0
 12 13  1  0  0  0  0
 12 35  1  0  0  0  0
 13 14  1  0  0  0  0
 13 36  1  0  0  0  0
 14 17  1  6  0  0  0
 14 37  1  0  0  0  0
 15 16  1  0  0  0  0
 15 38  1  0  0  0  0
 15 39  1  0  0  0  0
 16 18  1  0  0  0  0
 16 40  1  0  0  0  0
 16 41  1  0  0  0  0
 17 42  1  0  0  0  0
 17 43  1  0  0  0  0
 18 19  1  0  0  0  0
 18 44  1  0  0  0  0
 18 45  1  0  0  0  0
 19 20  1  0  0  0  0
 19 46  1  0  0  0  0
 19 47  1  0  0  0  0
 20 24  1  0  0  0  0
 20 48  1  0  0  0  0
 20 49  1  0  0  0  0
 21 26  1  0  0  0  0
 22 27  1  0  0  0  0
 23 28  1  0  0  0  0
 24 25  1  0  0  0  0
 24 50  1  0  0  0  0
 24 51  1  0  0  0  0
 25 30  1  0  0  0  0
 25 52  1  0  0  0  0
 25 53  1  0  0  0  0
 26 54  1  0  0  0  0
 26 55  1  0  0  0  0
 26 56  1  0  0  0  0
 27 57  1  0  0  0  0
 27 58  1  0  0  0  0
 27 59  1  0  0  0  0
 28 60  1  0  0  0  0
 28 61  1  0  0  0  0
 28 62  1  0  0  0  0
 29 31  1  0  0  0  0
 30 32  1  0  0  0  0
 30 63  1  0  0  0  0
 30 64  1  0  0  0  0
 31 65  1  0  0  0  0
 31 66  1  0  0  0  0
 31 67  1  0  0  0  0
 32 68  1  0  0  0  0
 32 69  1  0  0  0  0
 32 70  1  0  0  0  0
M  END
> <PUBCHEM_COMPOUND_CID>
101898197

> <PUBCHEM_COMPOUND_CANONICALIZED>
1

> <PUBCHEM_CACTVS_COMPLEXITY>
619

> <PUBCHEM_CACTVS_HBOND_ACCEPTOR>
9

> <PUBCHEM_CACTVS_HBOND_DONOR>
0

> <PUBCHEM_CACTVS_ROTATABLE_BOND>
17

> <PUBCHEM_CACTVS_SUBSKEYS>
AAADcfB4PAAAAAAAAAAAAAAAAAAAAAAAAAAkAAAAAAAAAAAAAAAAGgAAAAAACBSggAICCAAABAAIAACQCAAAAAAAAAAAAAAAAAABAAIAAAACAAAFAAACAAHA4KwAAAAAAAAAAAAAAAAAAAAAAAAAAAAAAA==

> <PUBCHEM_IUPAC_OPENEYE_NAME>
[(2R,3S,4R,5S)-3,4,5-triacetoxy-6-nonyl-tetrahydropyran-2-yl]methyl acetate

> <PUBCHEM_IUPAC_CAS_NAME>
acetic acid [(2R,3S,4R,5S)-3,4,5-triacetyloxy-6-nonyl-2-oxanyl]methyl ester

> <PUBCHEM_IUPAC_NAME_MARKUP>
[(2<I>R</I>,3<I>S</I>,4<I>R</I>,5<I>S</I>)-3,4,5-triacetyloxy-6-nonyloxan-2-yl]methyl acetate

> <PUBCHEM_IUPAC_NAME>
[(2R,3S,4R,5S)-3,4,5-triacetyloxy-6-nonyloxan-2-yl]methyl acetate

> <PUBCHEM_IUPAC_SYSTEMATIC_NAME>
[(2R,3S,4R,5S)-3,4,5-triacetyloxy-6-nonyl-oxan-2-yl]methyl ethanoate

> <PUBCHEM_IUPAC_TRADITIONAL_NAME>
acetic acid [(2R,3S,4R,5S)-3,4,5-triacetoxy-6-nonyl-tetrahydropyran-2-yl]methyl ester

> <PUBCHEM_IUPAC_INCHI>
InChI=1S/C23H38O9/c1-6-7-8-9-10-11-12-13-19-21(29-16(3)25)23(31-18(5)27)22(30-17(4)26)20(32-19)14-28-15(2)24/h19-23H,6-14H2,1-5H3/t19?,20-,21+,22+,23-/m1/s1

> <PUBCHEM_IUPAC_INCHIKEY>
JGUGITRXDFBSFK-NTMILRBGSA-N

> <PUBCHEM_XLOGP3>
5.1

> <PUBCHEM_EXACT_MASS>
458.25158279

> <PUBCHEM_MOLECULAR_FORMULA>
C23H38O9

> <PUBCHEM_MOLECULAR_WEIGHT>
458.5

> <PUBCHEM_OPENEYE_CAN_SMILES>
CCCCCCCCCC1C(C(C(C(O1)COC(=O)C)OC(=O)C)OC(=O)C)OC(=O)C

> <PUBCHEM_OPENEYE_ISO_SMILES>
CCCCCCCCCC1[C@@H]([C@H]([C@H]([C@H](O1)COC(=O)C)OC(=O)C)OC(=O)C)OC(=O)C

> <PUBCHEM_CACTVS_TPSA>
114

> <PUBCHEM_MONOISOTOPIC_WEIGHT>
458.25158279

> <PUBCHEM_TOTAL_CHARGE>
0

> <PUBCHEM_HEAVY_ATOM_COUNT>
32

> <PUBCHEM_ATOM_DEF_STEREO_COUNT>
4

> <PUBCHEM_ATOM_UDEF_STEREO_COUNT>
1

> <PUBCHEM_BOND_DEF_STEREO_COUNT>
0

> <PUBCHEM_BOND_UDEF_STEREO_COUNT>
0

> <PUBCHEM_ISOTOPIC_ATOM_COUNT>
0

> <PUBCHEM_COMPONENT_COUNT>
1

> <PUBCHEM_CACTVS_TAUTO_COUNT>
-1

> <PUBCHEM_COORDINATE_TYPE>
1
5
255

> <PUBCHEM_BONDANNOTATIONS>
10  15  3
14  17  6
11  2  5
12  3  6
13  4  6

$$$$
