 
  -OEChem-10192103382D

 71 70  0     1  0  0  0  0  0999 V2000
    5.4641   -1.5000    0.0000 O   0  0  0  0  0  0  0  0  0  0  0  0
    6.3301    1.0000    0.0000 O   0  0  0  0  0  0  0  0  0  0  0  0
    8.0622   -0.0000    0.0000 O   0  0  0  0  0  0  0  0  0  0  0  0
    3.7320   -0.5000    0.0000 O   0  0  0  0  0  0  0  0  0  0  0  0
    3.7320    1.5000    0.0000 O   0  0  0  0  0  0  0  0  0  0  0  0
    8.9282   -1.5000    0.0000 O   0  0  0  0  0  0  0  0  0  0  0  0
    3.7320   -1.5000    0.0000 O   0  0  0  0  0  0  0  0  0  0  0  0
    8.0622    1.0000    0.0000 O   0  0  0  0  0  0  0  0  0  0  0  0
    2.8660    1.0000    0.0000 O   0  0  0  0  0  0  0  0  0  0  0  0
    4.5981    3.0000    0.0000 O   0  0  0  0  0  0  0  0  0  0  0  0
    5.4641   -0.5000    0.0000 C   0  0  3  0  0  0  0  0  0  0  0  0
    6.3301   -0.0000    0.0000 C   0  0  3  0  0  0  0  0  0  0  0  0
    4.5981   -0.0000    0.0000 C   0  0  3  0  0  0  0  0  0  0  0  0
   12.3923   -0.5000    0.0000 C   0  0  0  0  0  0  0  0  0  0  0  0
   13.2583   -0.0000    0.0000 C   0  0  0  0  0  0  0  0  0  0  0  0
   11.5263   -0.0000    0.0000 C   0  0  0  0  0  0  0  0  0  0  0  0
   14.1244   -0.5000    0.0000 C   0  0  0  0  0  0  0  0  0  0  0  0
   10.6603   -0.5000    0.0000 C   0  0  0  0  0  0  0  0  0  0  0  0
    7.1962   -0.5000    0.0000 C   0  0  0  0  0  0  0  0  0  0  0  0
   14.9904   -0.0000    0.0000 C   0  0  0  0  0  0  0  0  0  0  0  0
    9.7942   -0.0000    0.0000 C   0  0  0  0  0  0  0  0  0  0  0  0
    4.5981    1.0000    0.0000 C   0  0  0  0  0  0  0  0  0  0  0  0
   15.8564   -0.5000    0.0000 C   0  0  0  0  0  0  0  0  0  0  0  0
    8.9282   -0.5000    0.0000 C   0  0  0  0  0  0  0  0  0  0  0  0
   16.7224   -0.0000    0.0000 C   0  0  0  0  0  0  0  0  0  0  0  0
    4.5981   -2.0000    0.0000 C   0  0  0  0  0  0  0  0  0  0  0  0
    7.1962    1.5000    0.0000 C   0  0  0  0  0  0  0  0  0  0  0  0
    2.8660   -0.0000    0.0000 C   0  0  0  0  0  0  0  0  0  0  0  0
    4.5981   -3.0000    0.0000 C   0  0  0  0  0  0  0  0  0  0  0  0
    3.7320    2.5000    0.0000 C   0  0  0  0  0  0  0  0  0  0  0  0
    7.1962    2.5000    0.0000 C   0  0  0  0  0  0  0  0  0  0  0  0
    2.0000   -0.5000    0.0000 C   0  0  0  0  0  0  0  0  0  0  0  0
    2.8660    3.0000    0.0000 C   0  0  0  0  0  0  0  0  0  0  0  0
    6.0010   -0.8100    0.0000 H   0  0  0  0  0  0  0  0  0  0  0  0
    6.8671    0.3100    0.0000 H   0  0  0  0  0  0  0  0  0  0  0  0
    4.5981   -0.6200    0.0000 H   0  0  0  0  0  0  0  0  0  0  0  0
   11.9938   -0.9749    0.0000 H   0  0  0  0  0  0  0  0  0  0  0  0
   12.7908   -0.9749    0.0000 H   0  0  0  0  0  0  0  0  0  0  0  0
   13.6569    0.4749    0.0000 H   0  0  0  0  0  0  0  0  0  0  0  0
   12.8598    0.4749    0.0000 H   0  0  0  0  0  0  0  0  0  0  0  0
   11.9248    0.4749    0.0000 H   0  0  0  0  0  0  0  0  0  0  0  0
   11.1278    0.4749    0.0000 H   0  0  0  0  0  0  0  0  0  0  0  0
   13.7258   -0.9749    0.0000 H   0  0  0  0  0  0  0  0  0  0  0  0
   14.5229   -0.9749    0.0000 H   0  0  0  0  0  0  0  0  0  0  0  0
   10.2617   -0.9749    0.0000 H   0  0  0  0  0  0  0  0  0  0  0  0
   11.0588   -0.9749    0.0000 H   0  0  0  0  0  0  0  0  0  0  0  0
    6.7976   -0.9749    0.0000 H   0  0  0  0  0  0  0  0  0  0  0  0
    7.5947   -0.9749    0.0000 H   0  0  0  0  0  0  0  0  0  0  0  0
   15.3889    0.4749    0.0000 H   0  0  0  0  0  0  0  0  0  0  0  0
   14.5919    0.4749    0.0000 H   0  0  0  0  0  0  0  0  0  0  0  0
   10.1928    0.4749    0.0000 H   0  0  0  0  0  0  0  0  0  0  0  0
    9.3957    0.4749    0.0000 H   0  0  0  0  0  0  0  0  0  0  0  0
    5.2087    0.8923    0.0000 H   0  0  0  0  0  0  0  0  0  0  0  0
    4.8101    1.5826    0.0000 H   0  0  0  0  0  0  0  0  0  0  0  0
   15.4579   -0.9749    0.0000 H   0  0  0  0  0  0  0  0  0  0  0  0
   16.2549   -0.9749    0.0000 H   0  0  0  0  0  0  0  0  0  0  0  0
   17.0324   -0.5369    0.0000 H   0  0  0  0  0  0  0  0  0  0  0  0
   17.2594    0.3100    0.0000 H   0  0  0  0  0  0  0  0  0  0  0  0
   16.4124    0.5369    0.0000 H   0  0  0  0  0  0  0  0  0  0  0  0
    3.9781   -3.0000    0.0000 H   0  0  0  0  0  0  0  0  0  0  0  0
    4.5981   -3.6200    0.0000 H   0  0  0  0  0  0  0  0  0  0  0  0
    5.2181   -3.0000    0.0000 H   0  0  0  0  0  0  0  0  0  0  0  0
    7.8162    2.5000    0.0000 H   0  0  0  0  0  0  0  0  0  0  0  0
    7.1962    3.1200    0.0000 H   0  0  0  0  0  0  0  0  0  0  0  0
    6.5762    2.5000    0.0000 H   0  0  0  0  0  0  0  0  0  0  0  0
    1.6900    0.0369    0.0000 H   0  0  0  0  0  0  0  0  0  0  0  0
    1.4631   -0.8100    0.0000 H   0  0  0  0  0  0  0  0  0  0  0  0
    2.3100   -1.0369    0.0000 H   0  0  0  0  0  0  0  0  0  0  0  0
    3.1760    3.5369    0.0000 H   0  0  0  0  0  0  0  0  0  0  0  0
    2.3291    3.3100    0.0000 H   0  0  0  0  0  0  0  0  0  0  0  0
    2.5560    2.4631    0.0000 H   0  0  0  0  0  0  0  0  0  0  0  0
  1 11  1  0  0  0  0
  1 26  1  0  0  0  0
  2 12  1  0  0  0  0
  2 27  1  0  0  0  0
  3 19  1  0  0  0  0
  3 24  1  0  0  0  0
  4 13  1  0  0  0  0
  4 28  1  0  0  0  0
  5 22  1  0  0  0  0
  5 30  1  0  0  0  0
  6 24  2  0  0  0  0
  7 26  2  0  0  0  0
  8 27  2  0  0  0  0
  9 28  2  0  0  0  0
 10 30  2  0  0  0  0
 11 12  1  0  0  0  0
 11 13  1  0  0  0  0
 11 34  1  0  0  0  0
 12 19  1  0  0  0  0
 12 35  1  0  0  0  0
 13 22  1  0  0  0  0
 13 36  1  0  0  0  0
 14 15  1  0  0  0  0
 14 16  1  0  0  0  0
 14 37  1  0  0  0  0
 14 38  1  0  0  0  0
 15 17  1  0  0  0  0
 15 39  1  0  0  0  0
 15 40  1  0  0  0  0
 16 18  1  0  0  0  0
 16 41  1  0  0  0  0
 16 42  1  0  0  0  0
 17 20  1  0  0  0  0
 17 43  1  0  0  0  0
 17 44  1  0  0  0  0
 18 21  1  0  0  0  0
 18 45  1  0  0  0  0
 18 46  1  0  0  0  0
 19 47  1  0  0  0  0
 19 48  1  0  0  0  0
 20 23  1  0  0  0  0
 20 49  1  0  0  0  0
 20 50  1  0  0  0  0
 21 24  1  0  0  0  0
 21 51  1  0  0  0  0
 21 52  1  0  0  0  0
 22 53  1  0  0  0  0
 22 54  1  0  0  0  0
 23 25  1  0  0  0  0
 23 55  1  0  0  0  0
 23 56  1  0  0  0  0
 25 57  1  0  0  0  0
 25 58  1  0  0  0  0
 25 59  1  0  0  0  0
 26 29  1  0  0  0  0
 27 31  1  0  0  0  0
 28 32  1  0  0  0  0
 29 60  1  0  0  0  0
 29 61  1  0  0  0  0
 29 62  1  0  0  0  0
 30 33  1  0  0  0  0
 31 63  1  0  0  0  0
 31 64  1  0  0  0  0
 31 65  1  0  0  0  0
 32 66  1  0  0  0  0
 32 67  1  0  0  0  0
 32 68  1  0  0  0  0
 33 69  1  0  0  0  0
 33 70  1  0  0  0  0
 33 71  1  0  0  0  0
M  END
> <PUBCHEM_COMPOUND_CID>
57596284

> <PUBCHEM_COMPOUND_CANONICALIZED>
1

> <PUBCHEM_CACTVS_COMPLEXITY>
631

> <PUBCHEM_CACTVS_HBOND_ACCEPTOR>
10

> <PUBCHEM_CACTVS_HBOND_DONOR>
0

> <PUBCHEM_CACTVS_ROTATABLE_BOND>
22

> <PUBCHEM_CACTVS_SUBSKEYS>
AAADcfB4PAAAAAAAAAAAAAAAAAAAAAAAAAAAAAAAAAAAAAAAAAAAGgAAAAAACBSggAICCAAABAAIAACQCAAAAAAAAAAAAAEAAAABABIAAAACAAAFAAACAAHI6KiAAAAAAAAAAAAAAAAAAAAAAAAAAAAAAA==

> <PUBCHEM_IUPAC_OPENEYE_NAME>
2,3,4,5-tetraacetoxypentyl decanoate

> <PUBCHEM_IUPAC_CAS_NAME>
decanoic acid 2,3,4,5-tetraacetyloxypentyl ester

> <PUBCHEM_IUPAC_NAME_MARKUP>
2,3,4,5-tetraacetyloxypentyl decanoate

> <PUBCHEM_IUPAC_NAME>
2,3,4,5-tetraacetyloxypentyl decanoate

> <PUBCHEM_IUPAC_SYSTEMATIC_NAME>
2,3,4,5-tetraacetyloxypentyl decanoate

> <PUBCHEM_IUPAC_TRADITIONAL_NAME>
capric acid 2,3,4,5-tetraacetoxypentyl ester

> <PUBCHEM_IUPAC_INCHI>
InChI=1S/C23H38O10/c1-6-7-8-9-10-11-12-13-22(28)30-15-21(32-18(4)26)23(33-19(5)27)20(31-17(3)25)14-29-16(2)24/h20-21,23H,6-15H2,1-5H3

> <PUBCHEM_IUPAC_INCHIKEY>
XTYRVDSFPJMFSY-UHFFFAOYSA-N

> <PUBCHEM_XLOGP3_AA>
4

> <PUBCHEM_EXACT_MASS>
474.24649740

> <PUBCHEM_MOLECULAR_FORMULA>
C23H38O10

> <PUBCHEM_MOLECULAR_WEIGHT>
474.5

> <PUBCHEM_OPENEYE_CAN_SMILES>
CCCCCCCCCC(=O)OCC(C(C(COC(=O)C)OC(=O)C)OC(=O)C)OC(=O)C

> <PUBCHEM_OPENEYE_ISO_SMILES>
CCCCCCCCCC(=O)OCC(C(C(COC(=O)C)OC(=O)C)OC(=O)C)OC(=O)C

> <PUBCHEM_CACTVS_TPSA>
132

> <PUBCHEM_MONOISOTOPIC_WEIGHT>
474.24649740

> <PUBCHEM_TOTAL_CHARGE>
0

> <PUBCHEM_HEAVY_ATOM_COUNT>
33

> <PUBCHEM_ATOM_DEF_STEREO_COUNT>
0

> <PUBCHEM_ATOM_UDEF_STEREO_COUNT>
3

> <PUBCHEM_BOND_DEF_STEREO_COUNT>
0

> <PUBCHEM_BOND_UDEF_STEREO_COUNT>
0

> <PUBCHEM_ISOTOPIC_ATOM_COUNT>
0

> <PUBCHEM_COMPONENT_COUNT>
1

> <PUBCHEM_CACTVS_TAUTO_COUNT>
-1

> <PUBCHEM_COORDINATE_TYPE>
1
5
255

> <PUBCHEM_BONDANNOTATIONS>
11  1  3
12  19  3
13  22  3

$$$$
