 
  -OEChem-10192104092D

 41 41  0     0  0  0  0  0  0999 V2000
    4.5303    3.3677    0.0000 O   0  0  0  0  0  0  0  0  0  0  0  0
    8.4764   -1.0150    0.0000 O   0  0  0  0  0  0  0  0  0  0  0  0
    2.0000   -1.0150    0.0000 O   0  0  0  0  0  0  0  0  0  0  0  0
    5.2382   -3.3677    0.0000 O   0  0  0  0  0  0  0  0  0  0  0  0
    6.6518    1.9828    0.0000 C   0  0  0  0  0  0  0  0  0  0  0  0
    7.3209    1.2396    0.0000 C   0  0  0  0  0  0  0  0  0  0  0  0
    5.7382    2.3895    0.0000 C   0  0  0  0  0  0  0  0  0  0  0  0
    7.6299    0.2886    0.0000 C   0  0  0  0  0  0  0  0  0  0  0  0
    3.1555    1.2396    0.0000 C   0  0  0  0  0  0  0  0  0  0  0  0
    3.8247    1.9828    0.0000 C   0  0  0  0  0  0  0  0  0  0  0  0
    2.8465    0.2886    0.0000 C   0  0  0  0  0  0  0  0  0  0  0  0
    4.7382    2.3895    0.0000 C   0  0  0  0  0  0  0  0  0  0  0  0
    7.0254   -1.5720    0.0000 C   0  0  0  0  0  0  0  0  0  0  0  0
    3.4511   -1.5720    0.0000 C   0  0  0  0  0  0  0  0  0  0  0  0
    6.2164   -2.1598    0.0000 C   0  0  0  0  0  0  0  0  0  0  0  0
    7.5254   -0.7059    0.0000 C   0  0  0  0  0  0  0  0  0  0  0  0
    4.2601   -2.1598    0.0000 C   0  0  0  0  0  0  0  0  0  0  0  0
    2.9511   -0.7059    0.0000 C   0  0  0  0  0  0  0  0  0  0  0  0
    5.2382   -2.3677    0.0000 C   0  0  0  0  0  0  0  0  0  0  0  0
    7.2344    2.1948    0.0000 H   0  0  0  0  0  0  0  0  0  0  0  0
    6.2873    1.4812    0.0000 H   0  0  0  0  0  0  0  0  0  0  0  0
    7.9394    1.1964    0.0000 H   0  0  0  0  0  0  0  0  0  0  0  0
    6.7840    0.9296    0.0000 H   0  0  0  0  0  0  0  0  0  0  0  0
    6.1842    2.8202    0.0000 H   0  0  0  0  0  0  0  0  0  0  0  0
    5.6093    1.7831    0.0000 H   0  0  0  0  0  0  0  0  0  0  0  0
    8.1773   -0.0025    0.0000 H   0  0  0  0  0  0  0  0  0  0  0  0
    7.0133    0.2238    0.0000 H   0  0  0  0  0  0  0  0  0  0  0  0
    2.8838    1.7969    0.0000 H   0  0  0  0  0  0  0  0  0  0  0  0
    3.6925    0.9296    0.0000 H   0  0  0  0  0  0  0  0  0  0  0  0
    3.8030    2.6024    0.0000 H   0  0  0  0  0  0  0  0  0  0  0  0
    4.1891    1.4812    0.0000 H   0  0  0  0  0  0  0  0  0  0  0  0
    2.3716    0.6871    0.0000 H   0  0  0  0  0  0  0  0  0  0  0  0
    3.4631    0.2238    0.0000 H   0  0  0  0  0  0  0  0  0  0  0  0
    7.1754   -2.1736    0.0000 H   0  0  0  0  0  0  0  0  0  0  0  0
    6.5646   -1.1571    0.0000 H   0  0  0  0  0  0  0  0  0  0  0  0
    2.8371   -1.6583    0.0000 H   0  0  0  0  0  0  0  0  0  0  0  0
    3.9118   -1.1571    0.0000 H   0  0  0  0  0  0  0  0  0  0  0  0
    6.1087   -2.7703    0.0000 H   0  0  0  0  0  0  0  0  0  0  0  0
    5.9642   -1.5934    0.0000 H   0  0  0  0  0  0  0  0  0  0  0  0
    3.7343   -2.4883    0.0000 H   0  0  0  0  0  0  0  0  0  0  0  0
    4.5122   -1.5934    0.0000 H   0  0  0  0  0  0  0  0  0  0  0  0
  1 12  2  0  0  0  0
  2 16  2  0  0  0  0
  3 18  2  0  0  0  0
  4 19  2  0  0  0  0
  5  6  1  0  0  0  0
  5  7  1  0  0  0  0
  5 20  1  0  0  0  0
  5 21  1  0  0  0  0
  6  8  1  0  0  0  0
  6 22  1  0  0  0  0
  6 23  1  0  0  0  0
  7 12  1  0  0  0  0
  7 24  1  0  0  0  0
  7 25  1  0  0  0  0
  8 16  1  0  0  0  0
  8 26  1  0  0  0  0
  8 27  1  0  0  0  0
  9 10  1  0  0  0  0
  9 11  1  0  0  0  0
  9 28  1  0  0  0  0
  9 29  1  0  0  0  0
 10 12  1  0  0  0  0
 10 30  1  0  0  0  0
 10 31  1  0  0  0  0
 11 18  1  0  0  0  0
 11 32  1  0  0  0  0
 11 33  1  0  0  0  0
 13 15  1  0  0  0  0
 13 16  1  0  0  0  0
 13 34  1  0  0  0  0
 13 35  1  0  0  0  0
 14 17  1  0  0  0  0
 14 18  1  0  0  0  0
 14 36  1  0  0  0  0
 14 37  1  0  0  0  0
 15 19  1  0  0  0  0
 15 38  1  0  0  0  0
 15 39  1  0  0  0  0
 17 19  1  0  0  0  0
 17 40  1  0  0  0  0
 17 41  1  0  0  0  0
M  END
> <PUBCHEM_COMPOUND_CID>
91266063

> <PUBCHEM_COMPOUND_CANONICALIZED>
1

> <PUBCHEM_CACTVS_COMPLEXITY>
357

> <PUBCHEM_CACTVS_HBOND_ACCEPTOR>
4

> <PUBCHEM_CACTVS_HBOND_DONOR>
0

> <PUBCHEM_CACTVS_ROTATABLE_BOND>
0

> <PUBCHEM_CACTVS_SUBSKEYS>
AAADceBwOAAAAAAAAAAAAAAAAAAAAAAAAAAAAAAAAAAAAAAAAAAAGgAAAAAACASAgAAAAAAAAAAIAIAQAAAAAAAAAAAAAAEAAAAAABIAAAAAAAAAAAAAAAEJioCgAAAAAAAAAAAAAAAAAAAAAAAAAAAAAA==

> <PUBCHEM_IUPAC_OPENEYE_NAME>
cyclopentadecane-1,4,7,11-tetrone

> <PUBCHEM_IUPAC_CAS_NAME>
cyclopentadecane-1,4,7,11-tetrone

> <PUBCHEM_IUPAC_NAME_MARKUP>
cyclopentadecane-1,4,7,11-tetrone

> <PUBCHEM_IUPAC_NAME>
cyclopentadecane-1,4,7,11-tetrone

> <PUBCHEM_IUPAC_SYSTEMATIC_NAME>
cyclopentadecane-1,4,7,11-tetrone

> <PUBCHEM_IUPAC_TRADITIONAL_NAME>
cyclopentadecane-1,4,7,11-diquinone

> <PUBCHEM_IUPAC_INCHI>
InChI=1S/C15H22O4/c16-12-4-1-2-5-13(17)8-10-15(19)11-9-14(18)7-3-6-12/h1-11H2

> <PUBCHEM_IUPAC_INCHIKEY>
HACFJMNQQQTYNU-UHFFFAOYSA-N

> <PUBCHEM_XLOGP3_AA>
-0.2

> <PUBCHEM_EXACT_MASS>
266.15180918

> <PUBCHEM_MOLECULAR_FORMULA>
C15H22O4

> <PUBCHEM_MOLECULAR_WEIGHT>
266.33

> <PUBCHEM_OPENEYE_CAN_SMILES>
C1CCC(=O)CCC(=O)CCC(=O)CCCC(=O)C1

> <PUBCHEM_OPENEYE_ISO_SMILES>
C1CCC(=O)CCC(=O)CCC(=O)CCCC(=O)C1

> <PUBCHEM_CACTVS_TPSA>
68.3

> <PUBCHEM_MONOISOTOPIC_WEIGHT>
266.15180918

> <PUBCHEM_TOTAL_CHARGE>
0

> <PUBCHEM_HEAVY_ATOM_COUNT>
19

> <PUBCHEM_ATOM_DEF_STEREO_COUNT>
0

> <PUBCHEM_ATOM_UDEF_STEREO_COUNT>
0

> <PUBCHEM_BOND_DEF_STEREO_COUNT>
0

> <PUBCHEM_BOND_UDEF_STEREO_COUNT>
0

> <PUBCHEM_ISOTOPIC_ATOM_COUNT>
0

> <PUBCHEM_COMPONENT_COUNT>
1

> <PUBCHEM_CACTVS_TAUTO_COUNT>
-1

> <PUBCHEM_COORDINATE_TYPE>
1
5
255

$$$$
