 
  -OEChem-10192104422D

 26 26  0     1  0  0  0  0  0999 V2000
    5.5006   -0.1418    0.0000 O   0  0  0  0  0  0  0  0  0  0  0  0
    2.3100    0.3582    0.0000 O   0  0  0  0  0  0  0  0  0  0  0  0
    3.1204   -1.3246    0.0000 O   0  0  0  0  0  0  0  0  0  0  0  0
    3.1204    2.0410    0.0000 O   0  0  0  0  0  0  0  0  0  0  0  0
    4.9413    2.4566    0.0000 O   0  0  0  0  0  0  0  0  0  0  0  0
    5.8969   -2.0349    0.0000 O   0  0  0  0  0  0  0  0  0  0  0  0
    3.3100    0.3582    0.0000 C   0  0  1  0  0  0  0  0  0  0  0  0
    3.7439   -0.5427    0.0000 C   0  0  1  0  0  0  0  0  0  0  0  0
    3.7439    1.2592    0.0000 C   0  0  2  0  0  0  0  0  0  0  0  0
    4.7188   -0.7653    0.0000 C   0  0  1  0  0  0  0  0  0  0  0  0
    4.7188    1.4817    0.0000 C   0  0  2  0  0  0  0  0  0  0  0  0
    4.9413   -1.7402    0.0000 C   0  0  0  0  0  0  0  0  0  0  0  0
    5.5006    0.8582    0.0000 C   0  3  0  0  0  0  0  0  0  0  0  0
    2.9801    0.8832    0.0000 H   0  0  0  0  0  0  0  0  0  0  0  0
    3.9487   -1.1280    0.0000 H   0  0  0  0  0  0  0  0  0  0  0  0
    3.9487    1.8444    0.0000 H   0  0  0  0  0  0  0  0  0  0  0  0
    5.3040   -0.9700    0.0000 H   0  0  0  0  0  0  0  0  0  0  0  0
    5.3040    1.6865    0.0000 H   0  0  0  0  0  0  0  0  0  0  0  0
    4.3221   -1.7711    0.0000 H   0  0  0  0  0  0  0  0  0  0  0  0
    4.8642   -2.3554    0.0000 H   0  0  0  0  0  0  0  0  0  0  0  0
    6.0592    1.1272    0.0000 H   0  0  0  0  0  0  0  0  0  0  0  0
    2.0000    0.8952    0.0000 H   0  0  0  0  0  0  0  0  0  0  0  0
    3.3469   -1.9017    0.0000 H   0  0  0  0  0  0  0  0  0  0  0  0
    3.3469    2.6182    0.0000 H   0  0  0  0  0  0  0  0  0  0  0  0
    5.5338    2.6394    0.0000 H   0  0  0  0  0  0  0  0  0  0  0  0
    6.0349   -2.6394    0.0000 H   0  0  0  0  0  0  0  0  0  0  0  0
  1 10  1  0  0  0  0
  1 13  1  0  0  0  0
  7  2  1  6  0  0  0
  2 22  1  0  0  0  0
  8  3  1  1  0  0  0
  3 23  1  0  0  0  0
  9  4  1  1  0  0  0
  4 24  1  0  0  0  0
 11  5  1  1  0  0  0
  5 25  1  0  0  0  0
  6 12  1  0  0  0  0
  6 26  1  0  0  0  0
  7  8  1  0  0  0  0
  7  9  1  0  0  0  0
  7 14  1  0  0  0  0
  8 10  1  0  0  0  0
  8 15  1  0  0  0  0
  9 11  1  0  0  0  0
  9 16  1  0  0  0  0
 10 12  1  6  0  0  0
 10 17  1  0  0  0  0
 11 13  1  0  0  0  0
 11 18  1  0  0  0  0
 12 19  1  0  0  0  0
 12 20  1  0  0  0  0
 13 21  1  0  0  0  0
M  CHG  1  13   1
M  END
> <PUBCHEM_COMPOUND_CID>
101575621

> <PUBCHEM_COMPOUND_CANONICALIZED>
1

> <PUBCHEM_CACTVS_COMPLEXITY>
163

> <PUBCHEM_CACTVS_HBOND_ACCEPTOR>
6

> <PUBCHEM_CACTVS_HBOND_DONOR>
5

> <PUBCHEM_CACTVS_ROTATABLE_BOND>
1

> <PUBCHEM_CACTVS_SUBSKEYS>
AAADccBgOAAAAAAAAAAAAAAAAAAAAAAAAAAAAAAABIAAAAAAAAAAGgAACAAACBSggAIAAAAABgAAAAAAAAAAAAAAAAAAAAAAAAABEAIAAAACQAAFAAADAAHA4CwAAAAAAAAAAAAAAAAAAAAAAAAAAAAAAA==

> <PUBCHEM_IUPAC_INCHI>
InChI=1S/C7H13O6/c8-1-4-6(11)7(12)5(10)3(9)2-13-4/h2-12H,1H2/q+1/t3-,4+,5-,6+,7+/m0/s1

> <PUBCHEM_IUPAC_INCHIKEY>
CXYZSWWCZWNPRR-PJEQPVAWSA-N

> <PUBCHEM_XLOGP3_AA>
-2.7

> <PUBCHEM_EXACT_MASS>
193.07121313

> <PUBCHEM_MOLECULAR_FORMULA>
C7H13O6+

> <PUBCHEM_MOLECULAR_WEIGHT>
193.17

> <PUBCHEM_OPENEYE_CAN_SMILES>
[CH+]1C(C(C(C(C(O1)CO)O)O)O)O

> <PUBCHEM_OPENEYE_ISO_SMILES>
[CH+]1[C@@H]([C@@H]([C@H]([C@@H]([C@H](O1)CO)O)O)O)O

> <PUBCHEM_CACTVS_TPSA>
110

> <PUBCHEM_MONOISOTOPIC_WEIGHT>
193.07121313

> <PUBCHEM_TOTAL_CHARGE>
1

> <PUBCHEM_HEAVY_ATOM_COUNT>
13

> <PUBCHEM_ATOM_DEF_STEREO_COUNT>
5

> <PUBCHEM_ATOM_UDEF_STEREO_COUNT>
0

> <PUBCHEM_BOND_DEF_STEREO_COUNT>
0

> <PUBCHEM_BOND_UDEF_STEREO_COUNT>
0

> <PUBCHEM_ISOTOPIC_ATOM_COUNT>
0

> <PUBCHEM_COMPONENT_COUNT>
1

> <PUBCHEM_CACTVS_TAUTO_COUNT>
-1

> <PUBCHEM_COORDINATE_TYPE>
1
5
255

> <PUBCHEM_BONDANNOTATIONS>
10  12  6
7  2  6
8  3  5
9  4  5
11  5  5

$$$$
