 
  -OEChem-10192103562D

 59 59  0     1  0  0  0  0  0999 V2000
    3.2044   -8.0642    0.0000 P   0  0  3  0  0  0  0  0  0  0  0  0
    4.0134   -7.4764    0.0000 O   0  0  0  0  0  0  0  0  0  0  0  0
    3.8854   -4.8028    0.0000 O   0  0  0  0  0  0  0  0  0  0  0  0
    2.3954   -7.4764    0.0000 O   0  0  0  0  0  0  0  0  0  0  0  0
    2.6166   -8.8732    0.0000 O   0  0  0  0  0  0  0  0  0  0  0  0
    5.4677   -4.0983    0.0000 O   0  0  0  0  0  0  0  0  0  0  0  0
    3.7922   -8.8732    0.0000 O   0  0  0  0  0  0  0  0  0  0  0  0
    4.8353   -0.5486    0.0000 C   0  0  0  0  0  0  0  0  0  0  0  0
    4.2475   -1.3576    0.0000 C   0  0  0  0  0  0  0  0  0  0  0  0
    4.4286    0.3649    0.0000 C   0  0  0  0  0  0  0  0  0  0  0  0
    4.6543   -2.2712    0.0000 C   0  0  0  0  0  0  0  0  0  0  0  0
    5.0164    1.1739    0.0000 C   0  0  0  0  0  0  0  0  0  0  0  0
    3.7044   -6.5253    0.0000 C   0  0  3  0  0  0  0  0  0  0  0  0
    4.0665   -3.0802    0.0000 C   0  0  0  0  0  0  0  0  0  0  0  0
    4.2922   -5.7163    0.0000 C   0  0  0  0  0  0  0  0  0  0  0  0
    2.7044   -6.5253    0.0000 C   0  0  0  0  0  0  0  0  0  0  0  0
    4.6096    2.0875    0.0000 C   0  0  0  0  0  0  0  0  0  0  0  0
    6.5540    6.2371    0.0000 C   0  0  0  0  0  0  0  0  0  0  0  0
    6.1473    7.1506    0.0000 C   0  0  0  0  0  0  0  0  0  0  0  0
    5.9662    5.4281    0.0000 C   0  0  0  0  0  0  0  0  0  0  0  0
    4.4732   -3.9938    0.0000 C   0  0  0  0  0  0  0  0  0  0  0  0
    6.7351    7.9596    0.0000 C   0  0  0  0  0  0  0  0  0  0  0  0
    6.3730    4.5145    0.0000 C   0  0  0  0  0  0  0  0  0  0  0  0
    5.1974    2.8965    0.0000 C   0  0  0  0  0  0  0  0  0  0  0  0
    6.3284    8.8732    0.0000 C   0  0  0  0  0  0  0  0  0  0  0  0
    5.7852    3.7055    0.0000 C   0  0  0  0  0  0  0  0  0  0  0  0
    5.2660   -0.9946    0.0000 H   0  0  0  0  0  0  0  0  0  0  0  0
    5.3493   -0.2019    0.0000 H   0  0  0  0  0  0  0  0  0  0  0  0
    3.8168   -0.9117    0.0000 H   0  0  0  0  0  0  0  0  0  0  0  0
    3.7335   -1.7044    0.0000 H   0  0  0  0  0  0  0  0  0  0  0  0
    3.9979    0.8109    0.0000 H   0  0  0  0  0  0  0  0  0  0  0  0
    3.9146    0.0182    0.0000 H   0  0  0  0  0  0  0  0  0  0  0  0
    5.0850   -2.7172    0.0000 H   0  0  0  0  0  0  0  0  0  0  0  0
    5.1683   -1.9245    0.0000 H   0  0  0  0  0  0  0  0  0  0  0  0
    5.4471    0.7279    0.0000 H   0  0  0  0  0  0  0  0  0  0  0  0
    5.5304    1.5206    0.0000 H   0  0  0  0  0  0  0  0  0  0  0  0
    4.3168   -6.6223    0.0000 H   0  0  0  0  0  0  0  0  0  0  0  0
    3.6358   -2.6342    0.0000 H   0  0  0  0  0  0  0  0  0  0  0  0
    3.5525   -3.4269    0.0000 H   0  0  0  0  0  0  0  0  0  0  0  0
    4.7229   -6.1623    0.0000 H   0  0  0  0  0  0  0  0  0  0  0  0
    4.8062   -5.3696    0.0000 H   0  0  0  0  0  0  0  0  0  0  0  0
    2.7692   -5.9087    0.0000 H   0  0  0  0  0  0  0  0  0  0  0  0
    2.0979   -6.3964    0.0000 H   0  0  0  0  0  0  0  0  0  0  0  0
    4.1789    2.5335    0.0000 H   0  0  0  0  0  0  0  0  0  0  0  0
    4.0956    1.7408    0.0000 H   0  0  0  0  0  0  0  0  0  0  0  0
    6.9847    5.7911    0.0000 H   0  0  0  0  0  0  0  0  0  0  0  0
    7.0680    6.5838    0.0000 H   0  0  0  0  0  0  0  0  0  0  0  0
    5.7166    7.5966    0.0000 H   0  0  0  0  0  0  0  0  0  0  0  0
    5.6333    6.8039    0.0000 H   0  0  0  0  0  0  0  0  0  0  0  0
    5.5356    5.8741    0.0000 H   0  0  0  0  0  0  0  0  0  0  0  0
    5.4522    5.0814    0.0000 H   0  0  0  0  0  0  0  0  0  0  0  0
    7.1658    7.5137    0.0000 H   0  0  0  0  0  0  0  0  0  0  0  0
    7.2491    8.3064    0.0000 H   0  0  0  0  0  0  0  0  0  0  0  0
    6.8037    4.0685    0.0000 H   0  0  0  0  0  0  0  0  0  0  0  0
    6.8870    4.8612    0.0000 H   0  0  0  0  0  0  0  0  0  0  0  0
    6.8948    9.1254    0.0000 H   0  0  0  0  0  0  0  0  0  0  0  0
    6.0762    9.4396    0.0000 H   0  0  0  0  0  0  0  0  0  0  0  0
    5.7620    8.6210    0.0000 H   0  0  0  0  0  0  0  0  0  0  0  0
    2.0000   -8.8084    0.0000 H   0  0  0  0  0  0  0  0  0  0  0  0
  1  2  1  0  0  0  0
  1  4  1  0  0  0  0
  1  5  1  0  0  0  0
  1  7  2  0  0  0  0
  2 13  1  0  0  0  0
  3 15  1  0  0  0  0
  3 21  1  0  0  0  0
  4 16  1  0  0  0  0
  5 59  1  0  0  0  0
  6 21  2  0  0  0  0
  8  9  1  0  0  0  0
  8 10  1  0  0  0  0
  8 27  1  0  0  0  0
  8 28  1  0  0  0  0
  9 11  1  0  0  0  0
  9 29  1  0  0  0  0
  9 30  1  0  0  0  0
 10 12  1  0  0  0  0
 10 31  1  0  0  0  0
 10 32  1  0  0  0  0
 11 14  1  0  0  0  0
 11 33  1  0  0  0  0
 11 34  1  0  0  0  0
 12 17  1  0  0  0  0
 12 35  1  0  0  0  0
 12 36  1  0  0  0  0
 13 15  1  0  0  0  0
 13 16  1  0  0  0  0
 13 37  1  0  0  0  0
 14 21  1  0  0  0  0
 14 38  1  0  0  0  0
 14 39  1  0  0  0  0
 15 40  1  0  0  0  0
 15 41  1  0  0  0  0
 16 42  1  0  0  0  0
 16 43  1  0  0  0  0
 17 24  1  0  0  0  0
 17 44  1  0  0  0  0
 17 45  1  0  0  0  0
 18 19  1  0  0  0  0
 18 20  1  0  0  0  0
 18 46  1  0  0  0  0
 18 47  1  0  0  0  0
 19 22  1  0  0  0  0
 19 48  1  0  0  0  0
 19 49  1  0  0  0  0
 20 23  1  0  0  0  0
 20 50  1  0  0  0  0
 20 51  1  0  0  0  0
 22 25  1  0  0  0  0
 22 52  1  0  0  0  0
 22 53  1  0  0  0  0
 23 26  1  0  0  0  0
 23 54  1  0  0  0  0
 23 55  1  0  0  0  0
 24 26  3  0  0  0  0
 25 56  1  0  0  0  0
 25 57  1  0  0  0  0
 25 58  1  0  0  0  0
M  END
> <PUBCHEM_COMPOUND_CID>
9801713

> <PUBCHEM_COMPOUND_CANONICALIZED>
1

> <PUBCHEM_CACTVS_COMPLEXITY>
507

> <PUBCHEM_CACTVS_HBOND_ACCEPTOR>
6

> <PUBCHEM_CACTVS_HBOND_DONOR>
1

> <PUBCHEM_CACTVS_ROTATABLE_BOND>
14

> <PUBCHEM_CACTVS_SUBSKEYS>
AAADcfB4OAIAAAAAAAAAAAAAAAAAASAAAAAAAAAAAAAAAAAAAAAAGgAACCAACBSggAICCAAABRBIUACQCIgAAAAAAAAAAAEAAAABABIAAAACAAAFAAACAAGIyKCAAAAAAAAAAAAAAAAAAAAAAAAAAAAAAA==

> <PUBCHEM_IUPAC_OPENEYE_NAME>
(2-hydroxy-2-oxo-1,3,2lambda5-dioxaphospholan-4-yl)methyl hexadec-9-ynoate

> <PUBCHEM_IUPAC_CAS_NAME>
9-hexadecynoic acid (2-hydroxy-2-oxo-1,3,2lambda5-dioxaphospholan-4-yl)methyl ester

> <PUBCHEM_IUPAC_NAME_MARKUP>
(2-hydroxy-2-oxo-1,3,2&lambda;<SUP>5</SUP>-dioxaphospholan-4-yl)methyl hexadec-9-ynoate

> <PUBCHEM_IUPAC_NAME>
(2-hydroxy-2-oxo-1,3,2lambda5-dioxaphospholan-4-yl)methyl hexadec-9-ynoate

> <PUBCHEM_IUPAC_SYSTEMATIC_NAME>
(2-oxidanyl-2-oxidanylidene-1,3,2lambda5-dioxaphospholan-4-yl)methyl hexadec-9-ynoate

> <PUBCHEM_IUPAC_TRADITIONAL_NAME>
hexadec-9-ynoic acid (2-hydroxy-2-keto-1,3,2lambda5-dioxaphospholan-4-yl)methyl ester

> <PUBCHEM_IUPAC_INCHI>
InChI=1S/C19H33O6P/c1-2-3-4-5-6-7-8-9-10-11-12-13-14-15-19(20)23-16-18-17-24-26(21,22)25-18/h18H,2-6,9-17H2,1H3,(H,21,22)

> <PUBCHEM_IUPAC_INCHIKEY>
YGKAQLJCSMOCQJ-UHFFFAOYSA-N

> <PUBCHEM_XLOGP3_AA>
4.9

> <PUBCHEM_EXACT_MASS>
388.20147577

> <PUBCHEM_MOLECULAR_FORMULA>
C19H33O6P

> <PUBCHEM_MOLECULAR_WEIGHT>
388.4

> <PUBCHEM_OPENEYE_CAN_SMILES>
CCCCCCC#CCCCCCCCC(=O)OCC1COP(=O)(O1)O

> <PUBCHEM_OPENEYE_ISO_SMILES>
CCCCCCC#CCCCCCCCC(=O)OCC1COP(=O)(O1)O

> <PUBCHEM_CACTVS_TPSA>
82.1

> <PUBCHEM_MONOISOTOPIC_WEIGHT>
388.20147577

> <PUBCHEM_TOTAL_CHARGE>
0

> <PUBCHEM_HEAVY_ATOM_COUNT>
26

> <PUBCHEM_ATOM_DEF_STEREO_COUNT>
0

> <PUBCHEM_ATOM_UDEF_STEREO_COUNT>
1

> <PUBCHEM_BOND_DEF_STEREO_COUNT>
0

> <PUBCHEM_BOND_UDEF_STEREO_COUNT>
0

> <PUBCHEM_ISOTOPIC_ATOM_COUNT>
0

> <PUBCHEM_COMPONENT_COUNT>
1

> <PUBCHEM_CACTVS_TAUTO_COUNT>
-1

> <PUBCHEM_COORDINATE_TYPE>
1
5
255

> <PUBCHEM_BONDANNOTATIONS>
13  15  3

$$$$
