 
  -OEChem-10192103542D

 81 85  0     1  0  0  0  0  0999 V2000
   12.2545    2.6467    0.0000 O   0  0  0  0  0  0  0  0  0  0  0  0
    7.7806   -2.7298    0.0000 O   0  0  0  0  0  0  0  0  0  0  0  0
    9.1466   -2.3637    0.0000 O   0  0  0  0  0  0  0  0  0  0  0  0
    2.6200   -1.8170    0.0000 O   0  0  0  0  0  0  0  0  0  0  0  0
    2.6400   -0.0851    0.0000 O   0  0  0  0  0  0  0  0  0  0  0  0
    8.6466   -0.4977    0.0000 C   0  0  2  0  0  0  0  0  0  0  0  0
    8.6466    0.5023    0.0000 C   0  0  1  0  0  0  0  0  0  0  0  0
    9.5406    1.0370    0.0000 C   0  0  2  0  0  0  0  0  0  0  0  0
    7.7806   -0.9977    0.0000 C   0  0  1  0  0  0  0  0  0  0  0  0
   10.4467    0.5231    0.0000 C   0  0  1  0  0  0  0  0  0  0  0  0
    9.5406   -1.0324    0.0000 C   0  0  0  0  0  0  0  0  0  0  0  0
   10.4467   -0.5185    0.0000 C   0  0  0  0  0  0  0  0  0  0  0  0
   11.3904    1.0584    0.0000 C   0  0  0  0  0  0  0  0  0  0  0  0
    6.9146   -0.4977    0.0000 C   0  0  0  0  0  0  0  0  0  0  0  0
    6.0046   -1.0045    0.0000 C   0  0  1  0  0  0  0  0  0  0  0  0
    5.9966   -2.0461    0.0000 C   0  0  1  0  0  0  0  0  0  0  0  0
    7.7806    1.0023    0.0000 C   0  0  0  0  0  0  0  0  0  0  0  0
    9.5155    2.1217    0.0000 C   0  0  0  0  0  0  0  0  0  0  0  0
    7.7967   -2.0392    0.0000 C   0  0  0  0  0  0  0  0  0  0  0  0
    6.8986   -2.5670    0.0000 C   0  0  0  0  0  0  0  0  0  0  0  0
    8.8204   -1.4825    0.0000 C   0  0  0  0  0  0  0  0  0  0  0  0
   11.3904    2.1434    0.0000 C   0  0  1  0  0  0  0  0  0  0  0  0
    8.6707    1.5303    0.0000 C   0  0  0  0  0  0  0  0  0  0  0  0
    6.9146    0.5023    0.0000 C   0  0  0  0  0  0  0  0  0  0  0  0
   10.4467    2.6786    0.0000 C   0  0  0  0  0  0  0  0  0  0  0  0
    5.0778   -0.4405    0.0000 C   0  0  0  0  0  0  0  0  0  0  0  0
    5.0611   -2.5959    0.0000 C   0  0  0  0  0  0  0  0  0  0  0  0
    8.2806   -1.8637    0.0000 C   0  0  0  0  0  0  0  0  0  0  0  0
    4.1299   -0.9684    0.0000 C   0  0  2  0  0  0  0  0  0  0  0  0
   12.3904    1.0545    0.0000 C   0  0  0  0  0  0  0  0  0  0  0  0
   11.8871    0.1904    0.0000 C   0  0  0  0  0  0  0  0  0  0  0  0
    4.1215   -2.0534    0.0000 C   0  0  0  0  0  0  0  0  0  0  0  0
    5.9889   -3.0461    0.0000 C   0  0  0  0  0  0  0  0  0  0  0  0
    3.6399   -0.0967    0.0000 C   0  0  0  0  0  0  0  0  0  0  0  0
    3.1299   -0.9568    0.0000 C   0  0  0  0  0  0  0  0  0  0  0  0
    9.3860    0.0830    0.0000 H   0  0  0  0  0  0  0  0  0  0  0  0
   11.1811    0.0953    0.0000 H   0  0  0  0  0  0  0  0  0  0  0  0
    9.1360   -1.5021    0.0000 H   0  0  0  0  0  0  0  0  0  0  0  0
    9.9342   -1.5114    0.0000 H   0  0  0  0  0  0  0  0  0  0  0  0
   10.6557   -1.1022    0.0000 H   0  0  0  0  0  0  0  0  0  0  0  0
   11.0575   -0.4124    0.0000 H   0  0  0  0  0  0  0  0  0  0  0  0
    6.0210   -0.1547    0.0000 H   0  0  0  0  0  0  0  0  0  0  0  0
    8.1792    1.4772    0.0000 H   0  0  0  0  0  0  0  0  0  0  0  0
    7.3821    1.4772    0.0000 H   0  0  0  0  0  0  0  0  0  0  0  0
    9.2930    2.7004    0.0000 H   0  0  0  0  0  0  0  0  0  0  0  0
    8.9073    2.0015    0.0000 H   0  0  0  0  0  0  0  0  0  0  0  0
    8.0147   -2.6196    0.0000 H   0  0  0  0  0  0  0  0  0  0  0  0
    8.4058   -1.9237    0.0000 H   0  0  0  0  0  0  0  0  0  0  0  0
    6.5013   -3.0429    0.0000 H   0  0  0  0  0  0  0  0  0  0  0  0
    7.2996   -3.0398    0.0000 H   0  0  0  0  0  0  0  0  0  0  0  0
    8.2098   -1.5902    0.0000 H   0  0  0  0  0  0  0  0  0  0  0  0
    8.9281   -2.0931    0.0000 H   0  0  0  0  0  0  0  0  0  0  0  0
    9.4310   -1.3748    0.0000 H   0  0  0  0  0  0  0  0  0  0  0  0
   11.9280    1.8344    0.0000 H   0  0  0  0  0  0  0  0  0  0  0  0
    8.9766    2.0696    0.0000 H   0  0  0  0  0  0  0  0  0  0  0  0
    8.1314    1.8361    0.0000 H   0  0  0  0  0  0  0  0  0  0  0  0
    8.3649    0.9910    0.0000 H   0  0  0  0  0  0  0  0  0  0  0  0
    6.3777    0.8123    0.0000 H   0  0  0  0  0  0  0  0  0  0  0  0
   10.8403    3.1576    0.0000 H   0  0  0  0  0  0  0  0  0  0  0  0
   10.0421    3.1484    0.0000 H   0  0  0  0  0  0  0  0  0  0  0  0
    5.4860    0.0262    0.0000 H   0  0  0  0  0  0  0  0  0  0  0  0
    4.6878    0.0416    0.0000 H   0  0  0  0  0  0  0  0  0  0  0  0
    4.6638   -3.0718    0.0000 H   0  0  0  0  0  0  0  0  0  0  0  0
    5.4621   -3.0688    0.0000 H   0  0  0  0  0  0  0  0  0  0  0  0
   12.3880    0.4345    0.0000 H   0  0  0  0  0  0  0  0  0  0  0  0
   13.0104    1.0521    0.0000 H   0  0  0  0  0  0  0  0  0  0  0  0
   12.3928    1.6745    0.0000 H   0  0  0  0  0  0  0  0  0  0  0  0
   11.3490   -0.1175    0.0000 H   0  0  0  0  0  0  0  0  0  0  0  0
   12.1950   -0.3477    0.0000 H   0  0  0  0  0  0  0  0  0  0  0  0
   12.4252    0.4983    0.0000 H   0  0  0  0  0  0  0  0  0  0  0  0
    3.5115   -1.9426    0.0000 H   0  0  0  0  0  0  0  0  0  0  0  0
    3.9080   -2.6354    0.0000 H   0  0  0  0  0  0  0  0  0  0  0  0
    5.3689   -3.0413    0.0000 H   0  0  0  0  0  0  0  0  0  0  0  0
    5.9841   -3.6661    0.0000 H   0  0  0  0  0  0  0  0  0  0  0  0
    6.6088   -3.0509    0.0000 H   0  0  0  0  0  0  0  0  0  0  0  0
   12.2521    3.2667    0.0000 H   0  0  0  0  0  0  0  0  0  0  0  0
    4.1804    0.2071    0.0000 H   0  0  0  0  0  0  0  0  0  0  0  0
    3.3362    0.4438    0.0000 H   0  0  0  0  0  0  0  0  0  0  0  0
    3.0994   -0.4004    0.0000 H   0  0  0  0  0  0  0  0  0  0  0  0
    8.0906   -3.2667    0.0000 H   0  0  0  0  0  0  0  0  0  0  0  0
    2.0000   -1.8099    0.0000 H   0  0  0  0  0  0  0  0  0  0  0  0
 22  1  1  1  0  0  0
  1 76  1  0  0  0  0
  2 28  1  0  0  0  0
  2 80  1  0  0  0  0
  3 28  2  0  0  0  0
  4 35  1  0  0  0  0
  4 81  1  0  0  0  0
  5 35  2  0  0  0  0
  6  7  1  0  0  0  0
  6  9  1  0  0  0  0
  6 11  1  0  0  0  0
  6 21  1  6  0  0  0
  7  8  1  0  0  0  0
  7 17  1  0  0  0  0
  7 36  1  1  0  0  0
  8 10  1  0  0  0  0
  8 18  1  0  0  0  0
  8 23  1  6  0  0  0
  9 14  1  0  0  0  0
  9 19  1  0  0  0  0
  9 28  1  1  0  0  0
 10 12  1  0  0  0  0
 10 13  1  0  0  0  0
 10 37  1  1  0  0  0
 11 12  1  0  0  0  0
 11 38  1  0  0  0  0
 11 39  1  0  0  0  0
 12 40  1  0  0  0  0
 12 41  1  0  0  0  0
 13 22  1  0  0  0  0
 13 30  1  0  0  0  0
 13 31  1  0  0  0  0
 14 15  1  0  0  0  0
 14 24  2  0  0  0  0
 15 16  1  0  0  0  0
 15 26  1  0  0  0  0
 15 42  1  6  0  0  0
 16 20  1  0  0  0  0
 16 27  1  0  0  0  0
 16 33  1  6  0  0  0
 17 24  1  0  0  0  0
 17 43  1  0  0  0  0
 17 44  1  0  0  0  0
 18 25  1  0  0  0  0
 18 45  1  0  0  0  0
 18 46  1  0  0  0  0
 19 20  1  0  0  0  0
 19 47  1  0  0  0  0
 19 48  1  0  0  0  0
 20 49  1  0  0  0  0
 20 50  1  0  0  0  0
 21 51  1  0  0  0  0
 21 52  1  0  0  0  0
 21 53  1  0  0  0  0
 22 25  1  0  0  0  0
 22 54  1  0  0  0  0
 23 55  1  0  0  0  0
 23 56  1  0  0  0  0
 23 57  1  0  0  0  0
 24 58  1  0  0  0  0
 25 59  1  0  0  0  0
 25 60  1  0  0  0  0
 26 29  1  0  0  0  0
 26 61  1  0  0  0  0
 26 62  1  0  0  0  0
 27 32  1  0  0  0  0
 27 63  1  0  0  0  0
 27 64  1  0  0  0  0
 29 32  1  0  0  0  0
 29 34  1  6  0  0  0
 29 35  1  0  0  0  0
 30 65  1  0  0  0  0
 30 66  1  0  0  0  0
 30 67  1  0  0  0  0
 31 68  1  0  0  0  0
 31 69  1  0  0  0  0
 31 70  1  0  0  0  0
 32 71  1  0  0  0  0
 32 72  1  0  0  0  0
 33 73  1  0  0  0  0
 33 74  1  0  0  0  0
 33 75  1  0  0  0  0
 34 77  1  0  0  0  0
 34 78  1  0  0  0  0
 34 79  1  0  0  0  0
M  END
> <PUBCHEM_COMPOUND_CID>
21594166

> <PUBCHEM_COMPOUND_CANONICALIZED>
1

> <PUBCHEM_CACTVS_COMPLEXITY>
983

> <PUBCHEM_CACTVS_HBOND_ACCEPTOR>
5

> <PUBCHEM_CACTVS_HBOND_DONOR>
3

> <PUBCHEM_CACTVS_ROTATABLE_BOND>
2

> <PUBCHEM_CACTVS_SUBSKEYS>
AAADcfB4OAAAAAAAAAAAAAAAAAAAAAAAAAAwYMGCAAAAAADAAAAAGgAACAAADxSggAICCAAAAgCIAiDSCAAAAAAgAAAACAEAAAgAEBIAAQAAQAAEwAAIAAOIyPCPgAAAAAAAAADAAAYAADAAAAAAAAAAAA==

> <PUBCHEM_IUPAC_OPENEYE_NAME>
(2R,4aR,6aR,6aR,6bR,8aR,10R,12aR,14bR)-10-hydroxy-2,4a,6b,9,9,12a-hexamethyl-1,3,4,5,6,6a,7,8,8a,10,11,12,13,14b-tetradecahydropicene-2,6a-dicarboxylic acid

> <PUBCHEM_IUPAC_CAS_NAME>
(2R,4aR,6aR,6aR,6bR,8aR,10R,12aR,14bR)-10-hydroxy-2,4a,6b,9,9,12a-hexamethyl-1,3,4,5,6,6a,7,8,8a,10,11,12,13,14b-tetradecahydropicene-2,6a-dicarboxylic acid

> <PUBCHEM_IUPAC_NAME_MARKUP>
(2<I>R</I>,4<I>a</I><I>R</I>,6<I>a</I><I>R</I>,6<I>a</I><I>R</I>,6<I>b</I><I>R</I>,8<I>a</I><I>R</I>,10<I>R</I>,12<I>a</I><I>R</I>,14<I>b</I><I>R</I>)-10-hydroxy-2,4<I>a</I>,6<I>b</I>,9,9,12<I>a</I>-hexamethyl-1,3,4,5,6,6<I>a</I>,7,8,8<I>a</I>,10,11,12,13,14<I>b</I>-tetradecahydropicene-2,6<I>a</I>-dicarboxylic acid

> <PUBCHEM_IUPAC_NAME>
(2R,4aR,6aR,6aR,6bR,8aR,10R,12aR,14bR)-10-hydroxy-2,4a,6b,9,9,12a-hexamethyl-1,3,4,5,6,6a,7,8,8a,10,11,12,13,14b-tetradecahydropicene-2,6a-dicarboxylic acid

> <PUBCHEM_IUPAC_SYSTEMATIC_NAME>
(2R,4aR,6aR,6aR,6bR,8aR,10R,12aR,14bR)-2,4a,6b,9,9,12a-hexamethyl-10-oxidanyl-1,3,4,5,6,6a,7,8,8a,10,11,12,13,14b-tetradecahydropicene-2,6a-dicarboxylic acid

> <PUBCHEM_IUPAC_TRADITIONAL_NAME>
(2R,4aR,6aR,6aR,6bR,8aR,10R,12aR,14bR)-10-hydroxy-2,4a,6b,9,9,12a-hexamethyl-1,3,4,5,6,6a,7,8,8a,10,11,12,13,14b-tetradecahydropicene-2,6a-dicarboxylic acid

> <PUBCHEM_IUPAC_INCHI>
InChI=1S/C30H46O5/c1-25(2)20-9-12-29(6)21(28(20,5)11-10-22(25)31)8-7-18-19-17-27(4,23(32)33)14-13-26(19,3)15-16-30(18,29)24(34)35/h7,19-22,31H,8-17H2,1-6H3,(H,32,33)(H,34,35)/t19-,20-,21+,22+,26+,27+,28-,29+,30+/m0/s1

> <PUBCHEM_IUPAC_INCHIKEY>
QEZXREBSGZAJJO-NDELSYEPSA-N

> <PUBCHEM_XLOGP3_AA>
6

> <PUBCHEM_EXACT_MASS>
486.33452456

> <PUBCHEM_MOLECULAR_FORMULA>
C30H46O5

> <PUBCHEM_MOLECULAR_WEIGHT>
486.7

> <PUBCHEM_OPENEYE_CAN_SMILES>
CC1(C2CCC3(C(C2(CCC1O)C)CC=C4C3(CCC5(C4CC(CC5)(C)C(=O)O)C)C(=O)O)C)C

> <PUBCHEM_OPENEYE_ISO_SMILES>
C[C@]12CC[C@@](C[C@H]1C3=CC[C@@H]4[C@]5(CC[C@H](C([C@@H]5CC[C@]4([C@@]3(CC2)C(=O)O)C)(C)C)O)C)(C)C(=O)O

> <PUBCHEM_CACTVS_TPSA>
94.8

> <PUBCHEM_MONOISOTOPIC_WEIGHT>
486.33452456

> <PUBCHEM_TOTAL_CHARGE>
0

> <PUBCHEM_HEAVY_ATOM_COUNT>
35

> <PUBCHEM_ATOM_DEF_STEREO_COUNT>
9

> <PUBCHEM_ATOM_UDEF_STEREO_COUNT>
0

> <PUBCHEM_BOND_DEF_STEREO_COUNT>
0

> <PUBCHEM_BOND_UDEF_STEREO_COUNT>
0

> <PUBCHEM_ISOTOPIC_ATOM_COUNT>
0

> <PUBCHEM_COMPONENT_COUNT>
1

> <PUBCHEM_CACTVS_TAUTO_COUNT>
-1

> <PUBCHEM_COORDINATE_TYPE>
1
5
255

> <PUBCHEM_BONDANNOTATIONS>
22  1  5
10  37  5
15  42  6
16  33  6
29  34  6
6  21  6
7  36  5
8  23  6
9  28  5

$$$$
