 
  -OEChem-10192104232D

 54 58  0     0  0  0  0  0  0999 V2000
    8.8916   -0.1491    0.0000 O   0  0  0  0  0  0  0  0  0  0  0  0
    3.8063   -2.8059    0.0000 O   0  0  0  0  0  0  0  0  0  0  0  0
    9.1195   -2.5187    0.0000 O   0  0  0  0  0  0  0  0  0  0  0  0
    7.7999   -3.9472    0.0000 O   0  0  0  0  0  0  0  0  0  0  0  0
    7.1596    2.8509    0.0000 O   0  0  0  0  0  0  0  0  0  0  0  0
    2.3160   -0.2248    0.0000 O   0  0  0  0  0  0  0  0  0  0  0  0
    5.2214    4.2331    0.0000 O   0  0  0  0  0  0  0  0  0  0  0  0
    3.3245    3.8045    0.0000 O   0  0  0  0  0  0  0  0  0  0  0  0
    6.9467   -1.1432    0.0000 C   0  0  0  0  0  0  0  0  0  0  0  0
    6.2569   -1.8899    0.0000 C   0  0  0  0  0  0  0  0  0  0  0  0
    5.3262    1.6636    0.0000 C   0  0  0  0  0  0  0  0  0  0  0  0
    4.3346    1.4395    0.0000 C   0  0  0  0  0  0  0  0  0  0  0  0
    7.1596   -0.1491    0.0000 C   0  0  0  0  0  0  0  0  0  0  0  0
    5.2827   -2.1807    0.0000 C   0  0  0  0  0  0  0  0  0  0  0  0
    6.2935    1.3509    0.0000 C   0  0  0  0  0  0  0  0  0  0  0  0
    3.5957    0.7413    0.0000 C   0  0  0  0  0  0  0  0  0  0  0  0
    6.2935    0.3509    0.0000 C   0  0  0  0  0  0  0  0  0  0  0  0
    5.2827   -0.2327    0.0000 C   0  0  0  0  0  0  0  0  0  0  0  0
    7.8731   -1.3766    0.0000 C   0  0  0  0  0  0  0  0  0  0  0  0
    6.5628   -2.7950    0.0000 C   0  0  0  0  0  0  0  0  0  0  0  0
    8.0256    0.3509    0.0000 C   0  0  0  0  0  0  0  0  0  0  0  0
    4.2964   -1.9343    0.0000 C   0  0  0  0  0  0  0  0  0  0  0  0
    7.1596    1.8509    0.0000 C   0  0  0  0  0  0  0  0  0  0  0  0
    3.3160   -0.2361    0.0000 C   0  0  0  0  0  0  0  0  0  0  0  0
    5.5873    2.5826    0.0000 C   0  0  0  0  0  0  0  0  0  0  0  0
    3.7038    2.1570    0.0000 C   0  0  0  0  0  0  0  0  0  0  0  0
    8.0256    1.3509    0.0000 C   0  0  0  0  0  0  0  0  0  0  0  0
    3.5736   -1.2195    0.0000 C   0  0  0  0  0  0  0  0  0  0  0  0
    8.1455   -2.2924    0.0000 C   0  0  0  0  0  0  0  0  0  0  0  0
    7.4972   -2.9941    0.0000 C   0  0  0  0  0  0  0  0  0  0  0  0
    4.9304    3.2763    0.0000 C   0  0  0  0  0  0  0  0  0  0  0  0
    3.9985    3.0658    0.0000 C   0  0  0  0  0  0  0  0  0  0  0  0
    9.4105   -3.4755    0.0000 C   0  0  0  0  0  0  0  0  0  0  0  0
    7.1258   -4.6859    0.0000 C   0  0  0  0  0  0  0  0  0  0  0  0
    5.7566    0.0409    0.0000 H   0  0  0  0  0  0  0  0  0  0  0  0
    5.8197    0.0773    0.0000 H   0  0  0  0  0  0  0  0  0  0  0  0
    8.3022   -0.9290    0.0000 H   0  0  0  0  0  0  0  0  0  0  0  0
    6.1506   -3.2581    0.0000 H   0  0  0  0  0  0  0  0  0  0  0  0
    6.1894    2.7304    0.0000 H   0  0  0  0  0  0  0  0  0  0  0  0
    3.0966    2.0315    0.0000 H   0  0  0  0  0  0  0  0  0  0  0  0
    8.5625    1.6609    0.0000 H   0  0  0  0  0  0  0  0  0  0  0  0
    3.0366   -1.5295    0.0000 H   0  0  0  0  0  0  0  0  0  0  0  0
    9.4285    0.1609    0.0000 H   0  0  0  0  0  0  0  0  0  0  0  0
    3.1863   -2.8129    0.0000 H   0  0  0  0  0  0  0  0  0  0  0  0
    7.6965    3.1609    0.0000 H   0  0  0  0  0  0  0  0  0  0  0  0
    2.0000   -0.7582    0.0000 H   0  0  0  0  0  0  0  0  0  0  0  0
    4.7979    4.6859    0.0000 H   0  0  0  0  0  0  0  0  0  0  0  0
    2.7189    3.6715    0.0000 H   0  0  0  0  0  0  0  0  0  0  0  0
    8.8173   -3.6559    0.0000 H   0  0  0  0  0  0  0  0  0  0  0  0
    9.5909   -4.0686    0.0000 H   0  0  0  0  0  0  0  0  0  0  0  0
   10.0037   -3.2951    0.0000 H   0  0  0  0  0  0  0  0  0  0  0  0
    6.6679   -4.2680    0.0000 H   0  0  0  0  0  0  0  0  0  0  0  0
    6.7079   -5.1439    0.0000 H   0  0  0  0  0  0  0  0  0  0  0  0
    7.5838   -5.1038    0.0000 H   0  0  0  0  0  0  0  0  0  0  0  0
  1 21  1  0  0  0  0
  1 43  1  0  0  0  0
  2 22  1  0  0  0  0
  2 44  1  0  0  0  0
  3 29  1  0  0  0  0
  3 33  1  0  0  0  0
  4 30  1  0  0  0  0
  4 34  1  0  0  0  0
  5 23  1  0  0  0  0
  5 45  1  0  0  0  0
  6 24  1  0  0  0  0
  6 46  1  0  0  0  0
  7 31  1  0  0  0  0
  7 47  1  0  0  0  0
  8 32  1  0  0  0  0
  8 48  1  0  0  0  0
  9 10  1  0  0  0  0
  9 13  1  0  0  0  0
  9 19  2  0  0  0  0
 10 14  1  0  0  0  0
 10 20  2  0  0  0  0
 11 12  1  0  0  0  0
 11 15  1  0  0  0  0
 11 25  2  0  0  0  0
 12 16  1  0  0  0  0
 12 26  2  0  0  0  0
 13 17  1  0  0  0  0
 13 21  2  0  0  0  0
 14 18  1  0  0  0  0
 14 22  2  0  0  0  0
 15 17  2  0  0  0  0
 15 23  1  0  0  0  0
 16 18  2  0  0  0  0
 16 24  1  0  0  0  0
 17 35  1  0  0  0  0
 18 36  1  0  0  0  0
 19 29  1  0  0  0  0
 19 37  1  0  0  0  0
 20 30  1  0  0  0  0
 20 38  1  0  0  0  0
 21 27  1  0  0  0  0
 22 28  1  0  0  0  0
 23 27  2  0  0  0  0
 24 28  2  0  0  0  0
 25 31  1  0  0  0  0
 25 39  1  0  0  0  0
 26 32  1  0  0  0  0
 26 40  1  0  0  0  0
 27 41  1  0  0  0  0
 28 42  1  0  0  0  0
 29 30  2  0  0  0  0
 31 32  2  0  0  0  0
 33 49  1  0  0  0  0
 33 50  1  0  0  0  0
 33 51  1  0  0  0  0
 34 52  1  0  0  0  0
 34 53  1  0  0  0  0
 34 54  1  0  0  0  0
M  END
> <PUBCHEM_COMPOUND_CID>
132563415

> <PUBCHEM_COMPOUND_CANONICALIZED>
1

> <PUBCHEM_CACTVS_COMPLEXITY>
648

> <PUBCHEM_CACTVS_HBOND_ACCEPTOR>
8

> <PUBCHEM_CACTVS_HBOND_DONOR>
6

> <PUBCHEM_CACTVS_ROTATABLE_BOND>
2

> <PUBCHEM_CACTVS_SUBSKEYS>
AAADceB4PAAAAAAAAAAAAAAAAAAAAAAAAAAwYMGAAAAAAADBVAAAGgAACAAADASAmAIyBsAABgCAAiBCAAACCAAgIAAAiAAGiIgNJyKGMBqAcCMlwBULuAeA4PwOoAADCAAYQABAAAYQADCAAAAAAAAAAA==

> <PUBCHEM_IUPAC_OPENEYE_NAME>
15,16-dimethoxypentacyclo[17.3.1.18,12.02,7.013,18]tetracosa-1(23),2,4,6,8(24),9,11,13,15,17,19,21-dodecaene-4,5,9,11,20,22-hexol

> <PUBCHEM_IUPAC_CAS_NAME>
15,16-dimethoxypentacyclo[17.3.1.18,12.02,7.013,18]tetracosa-1(23),2,4,6,8(24),9,11,13,15,17,19,21-dodecaene-4,5,9,11,20,22-hexol

> <PUBCHEM_IUPAC_NAME_MARKUP>
15,16-dimethoxypentacyclo[17.3.1.1<SUP>8,12</SUP>.0<SUP>2,7</SUP>.0<SUP>13,18</SUP>]tetracosa-1(23),2,4,6,8(24),9,11,13,15,17,19,21-dodecaene-4,5,9,11,20,22-hexol

> <PUBCHEM_IUPAC_NAME>
15,16-dimethoxypentacyclo[17.3.1.18,12.02,7.013,18]tetracosa-1(23),2,4,6,8(24),9,11,13,15,17,19,21-dodecaene-4,5,9,11,20,22-hexol

> <PUBCHEM_IUPAC_SYSTEMATIC_NAME>
15,16-dimethoxypentacyclo[17.3.1.18,12.02,7.013,18]tetracosa-1(23),2,4,6,8(24),9,11,13,15,17,19,21-dodecaene-4,5,9,11,20,22-hexol

> <PUBCHEM_IUPAC_TRADITIONAL_NAME>
15,16-dimethoxypentacyclo[17.3.1.18,12.02,7.013,18]tetracosa-1(23),2,4,6,8(24),9,11,13,15,17,19,21-dodecaene-4,5,9,11,20,22-hexol

> <PUBCHEM_IUPAC_INCHI>
InChI=1S/C26H20O8/c1-33-25-7-13-14(8-26(25)34-2)18-4-16(20(28)10-22(18)30)12-6-24(32)23(31)5-11(12)15-3-17(13)21(29)9-19(15)27/h3-10,27-32H,1-2H3

> <PUBCHEM_IUPAC_INCHIKEY>
LWQARKGQPKTJHE-UHFFFAOYSA-N

> <PUBCHEM_XLOGP3_AA>
4.3

> <PUBCHEM_EXACT_MASS>
460.11581759

> <PUBCHEM_MOLECULAR_FORMULA>
C26H20O8

> <PUBCHEM_MOLECULAR_WEIGHT>
460.4

> <PUBCHEM_OPENEYE_CAN_SMILES>
COC1=C(C=C2C(=C1)C3=C(C=C(C(=C3)C4=CC(=C(C=C4C5=CC2=C(C=C5O)O)O)O)O)O)OC

> <PUBCHEM_OPENEYE_ISO_SMILES>
COC1=C(C=C2C(=C1)C3=C(C=C(C(=C3)C4=CC(=C(C=C4C5=CC2=C(C=C5O)O)O)O)O)O)OC

> <PUBCHEM_CACTVS_TPSA>
140

> <PUBCHEM_MONOISOTOPIC_WEIGHT>
460.11581759

> <PUBCHEM_TOTAL_CHARGE>
0

> <PUBCHEM_HEAVY_ATOM_COUNT>
34

> <PUBCHEM_ATOM_DEF_STEREO_COUNT>
0

> <PUBCHEM_ATOM_UDEF_STEREO_COUNT>
0

> <PUBCHEM_BOND_DEF_STEREO_COUNT>
0

> <PUBCHEM_BOND_UDEF_STEREO_COUNT>
0

> <PUBCHEM_ISOTOPIC_ATOM_COUNT>
0

> <PUBCHEM_COMPONENT_COUNT>
1

> <PUBCHEM_CACTVS_TAUTO_COUNT>
-1

> <PUBCHEM_COORDINATE_TYPE>
1
5
255

> <PUBCHEM_BONDANNOTATIONS>
10  14  8
10  20  8
11  12  8
11  15  8
11  25  8
12  16  8
12  26  8
13  17  8
13  21  8
14  18  8
14  22  8
15  17  8
15  23  8
16  18  8
16  24  8
19  29  8
20  30  8
21  27  8
22  28  8
23  27  8
24  28  8
25  31  8
26  32  8
29  30  8
31  32  8
9  10  8
9  13  8
9  19  8

$$$$
