 
  -OEChem-10192103552D

 57 59  0     0  0  0  0  0  0999 V2000
    4.2690   -0.5000    0.0000 O   0  0  0  0  0  0  0  0  0  0  0  0
    6.0010    2.5000    0.0000 O   0  0  0  0  0  0  0  0  0  0  0  0
    2.5369   -3.5000    0.0000 O   0  0  0  0  0  0  0  0  0  0  0  0
    7.7331    5.5000    0.0000 O   0  0  0  0  0  0  0  0  0  0  0  0
    6.0010   -5.5000    0.0000 O   0  0  0  0  0  0  0  0  0  0  0  0
   11.1972    3.5000    0.0000 O   0  0  0  0  0  0  0  0  0  0  0  0
    3.4030   -5.0000    0.0000 O   0  0  0  0  0  0  0  0  0  0  0  0
    9.4651    5.5000    0.0000 O   0  0  0  0  0  0  0  0  0  0  0  0
    4.2690   -5.5000    0.0000 O   0  0  0  0  0  0  0  0  0  0  0  0
   10.3312    5.0000    0.0000 O   0  0  0  0  0  0  0  0  0  0  0  0
    6.0010    0.5000    0.0000 C   0  0  0  0  0  0  0  0  0  0  0  0
    6.0010   -0.5000    0.0000 C   0  0  0  0  0  0  0  0  0  0  0  0
    6.8671    1.0000    0.0000 C   0  0  0  0  0  0  0  0  0  0  0  0
    6.8671   -1.0000    0.0000 C   0  0  0  0  0  0  0  0  0  0  0  0
    7.7331    0.5000    0.0000 C   0  0  0  0  0  0  0  0  0  0  0  0
    7.7331   -0.5000    0.0000 C   0  0  0  0  0  0  0  0  0  0  0  0
    5.1350   -1.0000    0.0000 C   0  0  0  0  0  0  0  0  0  0  0  0
    6.8671    2.0000    0.0000 C   0  0  0  0  0  0  0  0  0  0  0  0
    5.1350    1.0000    0.0000 C   0  0  0  0  0  0  0  0  0  0  0  0
    6.8671   -2.0000    0.0000 C   0  0  0  0  0  0  0  0  0  0  0  0
    8.5991    1.0000    0.0000 C   0  0  0  0  0  0  0  0  0  0  0  0
    5.1350   -2.0000    0.0000 C   0  0  0  0  0  0  0  0  0  0  0  0
    7.7331    2.5000    0.0000 C   0  0  0  0  0  0  0  0  0  0  0  0
    4.2690   -2.5000    0.0000 C   0  0  0  0  0  0  0  0  0  0  0  0
    7.7331    3.5000    0.0000 C   0  0  0  0  0  0  0  0  0  0  0  0
    6.0010   -2.5000    0.0000 C   0  0  0  0  0  0  0  0  0  0  0  0
    8.5991    2.0000    0.0000 C   0  0  0  0  0  0  0  0  0  0  0  0
    4.2690   -3.5000    0.0000 C   0  0  0  0  0  0  0  0  0  0  0  0
    8.5991    4.0000    0.0000 C   0  0  0  0  0  0  0  0  0  0  0  0
    5.1350   -4.0000    0.0000 C   0  0  0  0  0  0  0  0  0  0  0  0
    9.4651    3.5000    0.0000 C   0  0  0  0  0  0  0  0  0  0  0  0
    6.0010   -3.5000    0.0000 C   0  0  0  0  0  0  0  0  0  0  0  0
    9.4651    2.5000    0.0000 C   0  0  0  0  0  0  0  0  0  0  0  0
    3.4030   -4.0000    0.0000 C   0  0  0  0  0  0  0  0  0  0  0  0
    8.5991    5.0000    0.0000 C   0  0  0  0  0  0  0  0  0  0  0  0
    5.1350   -5.0000    0.0000 C   0  0  0  0  0  0  0  0  0  0  0  0
   10.3312    4.0000    0.0000 C   0  0  0  0  0  0  0  0  0  0  0  0
    8.2700   -0.8100    0.0000 H   0  0  0  0  0  0  0  0  0  0  0  0
    5.4450    1.5369    0.0000 H   0  0  0  0  0  0  0  0  0  0  0  0
    4.5981    1.3100    0.0000 H   0  0  0  0  0  0  0  0  0  0  0  0
    4.8250    0.4631    0.0000 H   0  0  0  0  0  0  0  0  0  0  0  0
    6.2471   -2.0000    0.0000 H   0  0  0  0  0  0  0  0  0  0  0  0
    6.8671   -2.6200    0.0000 H   0  0  0  0  0  0  0  0  0  0  0  0
    7.4871   -2.0000    0.0000 H   0  0  0  0  0  0  0  0  0  0  0  0
    8.9091    0.4631    0.0000 H   0  0  0  0  0  0  0  0  0  0  0  0
    9.1360    1.3100    0.0000 H   0  0  0  0  0  0  0  0  0  0  0  0
    8.2891    1.5369    0.0000 H   0  0  0  0  0  0  0  0  0  0  0  0
    3.7320   -2.1900    0.0000 H   0  0  0  0  0  0  0  0  0  0  0  0
    7.1962    3.8100    0.0000 H   0  0  0  0  0  0  0  0  0  0  0  0
    6.5380   -2.1900    0.0000 H   0  0  0  0  0  0  0  0  0  0  0  0
    8.5991    1.3800    0.0000 H   0  0  0  0  0  0  0  0  0  0  0  0
    6.5380   -3.8100    0.0000 H   0  0  0  0  0  0  0  0  0  0  0  0
   10.0021    2.1900    0.0000 H   0  0  0  0  0  0  0  0  0  0  0  0
    2.0000   -3.8100    0.0000 H   0  0  0  0  0  0  0  0  0  0  0  0
    7.7331    6.1200    0.0000 H   0  0  0  0  0  0  0  0  0  0  0  0
    6.0010   -6.1200    0.0000 H   0  0  0  0  0  0  0  0  0  0  0  0
   11.7341    3.8100    0.0000 H   0  0  0  0  0  0  0  0  0  0  0  0
  1 17  2  0  0  0  0
  2 18  2  0  0  0  0
  3 34  1  0  0  0  0
  3 54  1  0  0  0  0
  4 35  1  0  0  0  0
  4 55  1  0  0  0  0
  5 36  1  0  0  0  0
  5 56  1  0  0  0  0
  6 37  1  0  0  0  0
  6 57  1  0  0  0  0
  7 34  2  0  0  0  0
  8 35  2  0  0  0  0
  9 36  2  0  0  0  0
 10 37  2  0  0  0  0
 11 12  2  0  0  0  0
 11 13  1  0  0  0  0
 11 19  1  0  0  0  0
 12 14  1  0  0  0  0
 12 17  1  0  0  0  0
 13 15  2  0  0  0  0
 13 18  1  0  0  0  0
 14 16  2  0  0  0  0
 14 20  1  0  0  0  0
 15 16  1  0  0  0  0
 15 21  1  0  0  0  0
 16 38  1  0  0  0  0
 17 22  1  0  0  0  0
 18 23  1  0  0  0  0
 19 39  1  0  0  0  0
 19 40  1  0  0  0  0
 19 41  1  0  0  0  0
 20 42  1  0  0  0  0
 20 43  1  0  0  0  0
 20 44  1  0  0  0  0
 21 45  1  0  0  0  0
 21 46  1  0  0  0  0
 21 47  1  0  0  0  0
 22 24  2  0  0  0  0
 22 26  1  0  0  0  0
 23 25  2  0  0  0  0
 23 27  1  0  0  0  0
 24 28  1  0  0  0  0
 24 48  1  0  0  0  0
 25 29  1  0  0  0  0
 25 49  1  0  0  0  0
 26 32  2  0  0  0  0
 26 50  1  0  0  0  0
 27 33  2  0  0  0  0
 27 51  1  0  0  0  0
 28 30  2  0  0  0  0
 28 34  1  0  0  0  0
 29 31  2  0  0  0  0
 29 35  1  0  0  0  0
 30 32  1  0  0  0  0
 30 36  1  0  0  0  0
 31 33  1  0  0  0  0
 31 37  1  0  0  0  0
 32 52  1  0  0  0  0
 33 53  1  0  0  0  0
M  END
> <PUBCHEM_COMPOUND_CID>
19045023

> <PUBCHEM_COMPOUND_CANONICALIZED>
1

> <PUBCHEM_CACTVS_COMPLEXITY>
883

> <PUBCHEM_CACTVS_HBOND_ACCEPTOR>
10

> <PUBCHEM_CACTVS_HBOND_DONOR>
4

> <PUBCHEM_CACTVS_ROTATABLE_BOND>
8

> <PUBCHEM_CACTVS_SUBSKEYS>
AAADceB4PAAAAAAAAAAAAAAAAAAAAAAAAAAwYMAAAAAAAAABUAAAGgAACAAADASAmAAyCIAAAgCIAqDSCAACAAAkAAAIiAEACMgIJjKAFRCAcQAkwAEImYfLzvCuwAACAAAQAACAAAQAACAAAAAAAAAAAA==

> <PUBCHEM_IUPAC_OPENEYE_NAME>
4-[3-(3,4-dicarboxybenzoyl)-2,4,6-trimethyl-benzoyl]phthalic acid

> <PUBCHEM_IUPAC_CAS_NAME>
4-[[3-[(3,4-dicarboxyphenyl)-oxomethyl]-2,4,6-trimethylphenyl]-oxomethyl]phthalic acid

> <PUBCHEM_IUPAC_NAME_MARKUP>
4-[3-(3,4-dicarboxybenzoyl)-2,4,6-trimethylbenzoyl]phthalic acid

> <PUBCHEM_IUPAC_NAME>
4-[3-(3,4-dicarboxybenzoyl)-2,4,6-trimethylbenzoyl]phthalic acid

> <PUBCHEM_IUPAC_SYSTEMATIC_NAME>
4-[3-(3,4-dicarboxyphenyl)carbonyl-2,4,6-trimethyl-phenyl]carbonylphthalic acid

> <PUBCHEM_IUPAC_TRADITIONAL_NAME>
4-[3-(3,4-dicarboxybenzoyl)-2,4,6-trimethyl-benzoyl]phthalic acid

> <PUBCHEM_IUPAC_INCHI>
InChI=1S/C27H20O10/c1-11-8-12(2)21(23(29)15-5-7-17(25(32)33)19(10-15)27(36)37)13(3)20(11)22(28)14-4-6-16(24(30)31)18(9-14)26(34)35/h4-10H,1-3H3,(H,30,31)(H,32,33)(H,34,35)(H,36,37)

> <PUBCHEM_IUPAC_INCHIKEY>
SQJGCYPXZPQFKY-UHFFFAOYSA-N

> <PUBCHEM_XLOGP3_AA>
3.8

> <PUBCHEM_EXACT_MASS>
504.10564683

> <PUBCHEM_MOLECULAR_FORMULA>
C27H20O10

> <PUBCHEM_MOLECULAR_WEIGHT>
504.4

> <PUBCHEM_OPENEYE_CAN_SMILES>
CC1=CC(=C(C(=C1C(=O)C2=CC(=C(C=C2)C(=O)O)C(=O)O)C)C(=O)C3=CC(=C(C=C3)C(=O)O)C(=O)O)C

> <PUBCHEM_OPENEYE_ISO_SMILES>
CC1=CC(=C(C(=C1C(=O)C2=CC(=C(C=C2)C(=O)O)C(=O)O)C)C(=O)C3=CC(=C(C=C3)C(=O)O)C(=O)O)C

> <PUBCHEM_CACTVS_TPSA>
183

> <PUBCHEM_MONOISOTOPIC_WEIGHT>
504.10564683

> <PUBCHEM_TOTAL_CHARGE>
0

> <PUBCHEM_HEAVY_ATOM_COUNT>
37

> <PUBCHEM_ATOM_DEF_STEREO_COUNT>
0

> <PUBCHEM_ATOM_UDEF_STEREO_COUNT>
0

> <PUBCHEM_BOND_DEF_STEREO_COUNT>
0

> <PUBCHEM_BOND_UDEF_STEREO_COUNT>
0

> <PUBCHEM_ISOTOPIC_ATOM_COUNT>
0

> <PUBCHEM_COMPONENT_COUNT>
1

> <PUBCHEM_CACTVS_TAUTO_COUNT>
-1

> <PUBCHEM_COORDINATE_TYPE>
1
5
255

> <PUBCHEM_BONDANNOTATIONS>
11  12  8
11  13  8
12  14  8
13  15  8
14  16  8
15  16  8
22  24  8
22  26  8
23  25  8
23  27  8
24  28  8
25  29  8
26  32  8
27  33  8
28  30  8
29  31  8
30  32  8
31  33  8

$$$$
