 
  -OEChem-10192103592D

103106  0     1  0  0  0  0  0999 V2000
    5.1350   -2.7500    0.0000 O   0  0  0  0  0  0  0  0  0  0  0  0
    5.1350    3.2500    0.0000 O   0  0  0  0  0  0  0  0  0  0  0  0
    6.8671   -2.7500    0.0000 O   0  0  0  0  0  0  0  0  0  0  0  0
    5.1350   -5.7500    0.0000 O   0  0  0  0  0  0  0  0  0  0  0  0
    3.4030   -4.7500    0.0000 O   0  0  0  0  0  0  0  0  0  0  0  0
    6.8671   -4.7500    0.0000 O   0  0  0  0  0  0  0  0  0  0  0  0
    4.2690    1.7500    0.0000 O   0  0  0  0  0  0  0  0  0  0  0  0
    2.5369    4.7500    0.0000 O   0  0  0  0  0  0  0  0  0  0  0  0
    4.2690    5.7500    0.0000 O   0  0  0  0  0  0  0  0  0  0  0  0
    2.5369    2.7500    0.0000 O   0  0  0  0  0  0  0  0  0  0  0  0
    3.4030   -1.7500    0.0000 O   0  0  0  0  0  0  0  0  0  0  0  0
    6.0010    5.7500    0.0000 O   0  0  0  0  0  0  0  0  0  0  0  0
    8.5991   -1.7500    0.0000 O   0  0  0  0  0  0  0  0  0  0  0  0
    4.2690   -0.2500    0.0000 O   0  0  0  0  0  0  0  0  0  0  0  0
    6.0010    2.7500    0.0000 O   0  0  0  0  0  0  0  0  0  0  0  0
   10.3312   -2.7500    0.0000 O   0  0  0  0  0  0  0  0  0  0  0  0
    8.5991    0.2500    0.0000 O   0  0  0  0  0  0  0  0  0  0  0  0
   14.6613   -0.2500    0.0000 O   0  0  0  0  0  0  0  0  0  0  0  0
    5.1350   -4.7500    0.0000 C   0  0  1  0  0  0  0  0  0  0  0  0
    4.2690   -4.2500    0.0000 C   0  0  1  0  0  0  0  0  0  0  0  0
    6.0010   -4.2500    0.0000 C   0  0  2  0  0  0  0  0  0  0  0  0
    4.2690   -3.2500    0.0000 C   0  0  1  0  0  0  0  0  0  0  0  0
    6.0010   -3.2500    0.0000 C   0  0  1  0  0  0  0  0  0  0  0  0
    3.4030    4.2500    0.0000 C   0  0  1  0  0  0  0  0  0  0  0  0
    4.2690    4.7500    0.0000 C   0  0  1  0  0  0  0  0  0  0  0  0
    3.4030    3.2500    0.0000 C   0  0  2  0  0  0  0  0  0  0  0  0
    5.1350    4.2500    0.0000 C   0  0  1  0  0  0  0  0  0  0  0  0
    4.2690    2.7500    0.0000 C   0  0  1  0  0  0  0  0  0  0  0  0
    3.4030   -2.7500    0.0000 C   0  0  0  0  0  0  0  0  0  0  0  0
    6.0010    4.7500    0.0000 C   0  0  0  0  0  0  0  0  0  0  0  0
    6.8671   -1.7500    0.0000 C   0  0  0  0  0  0  0  0  0  0  0  0
    7.7331   -1.2500    0.0000 C   0  0  1  0  0  0  0  0  0  0  0  0
    7.7331   -0.2500    0.0000 C   0  0  0  0  0  0  0  0  0  0  0  0
    5.1350    1.2500    0.0000 C   0  0  0  0  0  0  0  0  0  0  0  0
    6.8671    0.2500    0.0000 C   0  0  0  0  0  0  0  0  0  0  0  0
    5.1350    0.2500    0.0000 C   0  0  0  0  0  0  0  0  0  0  0  0
    6.0010    1.7500    0.0000 C   0  0  0  0  0  0  0  0  0  0  0  0
    6.0010   -0.2500    0.0000 C   0  0  0  0  0  0  0  0  0  0  0  0
    6.8671    1.2500    0.0000 C   0  0  0  0  0  0  0  0  0  0  0  0
    9.4651   -1.2500    0.0000 C   0  0  0  0  0  0  0  0  0  0  0  0
   10.3312   -1.7500    0.0000 C   0  0  0  0  0  0  0  0  0  0  0  0
    9.4651   -0.2500    0.0000 C   0  0  0  0  0  0  0  0  0  0  0  0
    3.4030    0.2500    0.0000 C   0  0  0  0  0  0  0  0  0  0  0  0
    6.8671    3.2500    0.0000 C   0  0  0  0  0  0  0  0  0  0  0  0
   11.1972   -1.2500    0.0000 C   0  0  0  0  0  0  0  0  0  0  0  0
   10.3312    0.2500    0.0000 C   0  0  0  0  0  0  0  0  0  0  0  0
   11.1972   -0.2500    0.0000 C   0  0  0  0  0  0  0  0  0  0  0  0
   12.0632    0.2500    0.0000 C   0  0  0  0  0  0  0  0  0  0  0  0
   11.1972   -3.2500    0.0000 C   0  0  0  0  0  0  0  0  0  0  0  0
    8.5991    1.2500    0.0000 C   0  0  0  0  0  0  0  0  0  0  0  0
   12.9292   -0.2500    0.0000 C   0  0  0  0  0  0  0  0  0  0  0  0
   13.7953    0.2500    0.0000 C   0  0  0  0  0  0  0  0  0  0  0  0
   15.5273    0.2500    0.0000 C   0  0  0  0  0  0  0  0  0  0  0  0
    4.5981   -5.0600    0.0000 H   0  0  0  0  0  0  0  0  0  0  0  0
    4.2690   -4.8700    0.0000 H   0  0  0  0  0  0  0  0  0  0  0  0
    6.0010   -4.8700    0.0000 H   0  0  0  0  0  0  0  0  0  0  0  0
    4.2690   -2.6300    0.0000 H   0  0  0  0  0  0  0  0  0  0  0  0
    6.0010   -2.6300    0.0000 H   0  0  0  0  0  0  0  0  0  0  0  0
    3.4030    4.8700    0.0000 H   0  0  0  0  0  0  0  0  0  0  0  0
    4.8059    5.0600    0.0000 H   0  0  0  0  0  0  0  0  0  0  0  0
    2.8660    3.5600    0.0000 H   0  0  0  0  0  0  0  0  0  0  0  0
    5.6720    3.9400    0.0000 H   0  0  0  0  0  0  0  0  0  0  0  0
    3.7320    2.4400    0.0000 H   0  0  0  0  0  0  0  0  0  0  0  0
    2.7924   -2.6423    0.0000 H   0  0  0  0  0  0  0  0  0  0  0  0
    3.1909   -3.3326    0.0000 H   0  0  0  0  0  0  0  0  0  0  0  0
    6.2131    4.1674    0.0000 H   0  0  0  0  0  0  0  0  0  0  0  0
    6.6116    4.8577    0.0000 H   0  0  0  0  0  0  0  0  0  0  0  0
    6.6550   -1.1674    0.0000 H   0  0  0  0  0  0  0  0  0  0  0  0
    6.2565   -1.8577    0.0000 H   0  0  0  0  0  0  0  0  0  0  0  0
    8.2700   -0.9400    0.0000 H   0  0  0  0  0  0  0  0  0  0  0  0
    4.5981   -6.0600    0.0000 H   0  0  0  0  0  0  0  0  0  0  0  0
    2.8660   -4.4400    0.0000 H   0  0  0  0  0  0  0  0  0  0  0  0
    7.4040   -4.4400    0.0000 H   0  0  0  0  0  0  0  0  0  0  0  0
    8.3437   -0.3577    0.0000 H   0  0  0  0  0  0  0  0  0  0  0  0
    7.9451    0.3326    0.0000 H   0  0  0  0  0  0  0  0  0  0  0  0
    2.5369    5.3700    0.0000 H   0  0  0  0  0  0  0  0  0  0  0  0
    3.7320    6.0600    0.0000 H   0  0  0  0  0  0  0  0  0  0  0  0
    2.0000    3.0600    0.0000 H   0  0  0  0  0  0  0  0  0  0  0  0
    2.8660   -1.4400    0.0000 H   0  0  0  0  0  0  0  0  0  0  0  0
    6.0010   -0.8700    0.0000 H   0  0  0  0  0  0  0  0  0  0  0  0
    7.4040    1.5600    0.0000 H   0  0  0  0  0  0  0  0  0  0  0  0
    6.5380    6.0600    0.0000 H   0  0  0  0  0  0  0  0  0  0  0  0
    3.7130    0.7869    0.0000 H   0  0  0  0  0  0  0  0  0  0  0  0
    2.8660    0.5600    0.0000 H   0  0  0  0  0  0  0  0  0  0  0  0
    3.0930   -0.2869    0.0000 H   0  0  0  0  0  0  0  0  0  0  0  0
    7.1771    2.7131    0.0000 H   0  0  0  0  0  0  0  0  0  0  0  0
    7.4040    3.5600    0.0000 H   0  0  0  0  0  0  0  0  0  0  0  0
    6.5571    3.7869    0.0000 H   0  0  0  0  0  0  0  0  0  0  0  0
   11.7341   -1.5600    0.0000 H   0  0  0  0  0  0  0  0  0  0  0  0
   10.3312    0.8700    0.0000 H   0  0  0  0  0  0  0  0  0  0  0  0
   12.0632    0.8700    0.0000 H   0  0  0  0  0  0  0  0  0  0  0  0
   10.8872   -3.7869    0.0000 H   0  0  0  0  0  0  0  0  0  0  0  0
   11.7341   -3.5600    0.0000 H   0  0  0  0  0  0  0  0  0  0  0  0
   11.5072   -2.7131    0.0000 H   0  0  0  0  0  0  0  0  0  0  0  0
    9.2191    1.2500    0.0000 H   0  0  0  0  0  0  0  0  0  0  0  0
    8.5991    1.8700    0.0000 H   0  0  0  0  0  0  0  0  0  0  0  0
    7.9791    1.2500    0.0000 H   0  0  0  0  0  0  0  0  0  0  0  0
   12.9292   -0.8700    0.0000 H   0  0  0  0  0  0  0  0  0  0  0  0
   14.1938    0.7249    0.0000 H   0  0  0  0  0  0  0  0  0  0  0  0
   13.3967    0.7249    0.0000 H   0  0  0  0  0  0  0  0  0  0  0  0
   15.8373   -0.2869    0.0000 H   0  0  0  0  0  0  0  0  0  0  0  0
   16.0643    0.5600    0.0000 H   0  0  0  0  0  0  0  0  0  0  0  0
   15.2173    0.7869    0.0000 H   0  0  0  0  0  0  0  0  0  0  0  0
  1 22  1  0  0  0  0
  1 23  1  0  0  0  0
  2 27  1  0  0  0  0
  2 28  1  0  0  0  0
 23  3  1  1  0  0  0
  3 31  1  0  0  0  0
 19  4  1  1  0  0  0
  4 71  1  0  0  0  0
 20  5  1  6  0  0  0
  5 72  1  0  0  0  0
 21  6  1  6  0  0  0
  6 73  1  0  0  0  0
 28  7  1  1  0  0  0
  7 34  1  0  0  0  0
 24  8  1  1  0  0  0
  8 76  1  0  0  0  0
 25  9  1  6  0  0  0
  9 77  1  0  0  0  0
 26 10  1  6  0  0  0
 10 78  1  0  0  0  0
 11 29  1  0  0  0  0
 11 79  1  0  0  0  0
 12 30  1  0  0  0  0
 12 82  1  0  0  0  0
 32 13  1  1  0  0  0
 13 40  1  0  0  0  0
 14 36  1  0  0  0  0
 14 43  1  0  0  0  0
 15 37  1  0  0  0  0
 15 44  1  0  0  0  0
 16 41  1  0  0  0  0
 16 49  1  0  0  0  0
 17 42  1  0  0  0  0
 17 50  1  0  0  0  0
 18 52  1  0  0  0  0
 18 53  1  0  0  0  0
 19 20  1  0  0  0  0
 19 21  1  0  0  0  0
 19 54  1  0  0  0  0
 20 22  1  0  0  0  0
 20 55  1  0  0  0  0
 21 23  1  0  0  0  0
 21 56  1  0  0  0  0
 22 29  1  1  0  0  0
 22 57  1  0  0  0  0
 23 58  1  0  0  0  0
 24 25  1  0  0  0  0
 24 26  1  0  0  0  0
 24 59  1  0  0  0  0
 25 27  1  0  0  0  0
 25 60  1  0  0  0  0
 26 28  1  0  0  0  0
 26 61  1  0  0  0  0
 27 30  1  1  0  0  0
 27 62  1  0  0  0  0
 28 63  1  0  0  0  0
 29 64  1  0  0  0  0
 29 65  1  0  0  0  0
 30 66  1  0  0  0  0
 30 67  1  0  0  0  0
 31 32  1  0  0  0  0
 31 68  1  0  0  0  0
 31 69  1  0  0  0  0
 32 33  1  0  0  0  0
 32 70  1  0  0  0  0
 33 35  1  0  0  0  0
 33 74  1  0  0  0  0
 33 75  1  0  0  0  0
 34 36  2  0  0  0  0
 34 37  1  0  0  0  0
 35 38  2  0  0  0  0
 35 39  1  0  0  0  0
 36 38  1  0  0  0  0
 37 39  2  0  0  0  0
 38 80  1  0  0  0  0
 39 81  1  0  0  0  0
 40 41  2  0  0  0  0
 40 42  1  0  0  0  0
 41 45  1  0  0  0  0
 42 46  2  0  0  0  0
 43 83  1  0  0  0  0
 43 84  1  0  0  0  0
 43 85  1  0  0  0  0
 44 86  1  0  0  0  0
 44 87  1  0  0  0  0
 44 88  1  0  0  0  0
 45 47  2  0  0  0  0
 45 89  1  0  0  0  0
 46 47  1  0  0  0  0
 46 90  1  0  0  0  0
 47 48  1  0  0  0  0
 48 51  2  0  0  0  0
 48 91  1  0  0  0  0
 49 92  1  0  0  0  0
 49 93  1  0  0  0  0
 49 94  1  0  0  0  0
 50 95  1  0  0  0  0
 50 96  1  0  0  0  0
 50 97  1  0  0  0  0
 51 52  1  0  0  0  0
 51 98  1  0  0  0  0
 52 99  1  0  0  0  0
 52100  1  0  0  0  0
 53101  1  0  0  0  0
 53102  1  0  0  0  0
 53103  1  0  0  0  0
M  END
> <PUBCHEM_COMPOUND_CID>
102138442

> <PUBCHEM_COMPOUND_CANONICALIZED>
1

> <PUBCHEM_CACTVS_COMPLEXITY>
1040

> <PUBCHEM_CACTVS_HBOND_ACCEPTOR>
18

> <PUBCHEM_CACTVS_HBOND_DONOR>
8

> <PUBCHEM_CACTVS_ROTATABLE_BOND>
18

> <PUBCHEM_CACTVS_SUBSKEYS>
AAADcfB8PgAAAAAAAAAAAAAAAAAAAAAAAAA0aIEAAAAAAAABQAAAGgAACAAADBSwmAMyDoAABgCAAiBCAAACCAAgIAAIiAAGiIgdNyKEMRqieCKlwBUPqAfA4LwOIAABCAAAQABAAAIQAACAAAAAAAAAAA==

> <PUBCHEM_IUPAC_OPENEYE_NAME>
(2R,3R,4S,5S,6R)-2-[(2R)-2-[2,6-dimethoxy-4-[(E)-3-methoxyprop-1-enyl]phenoxy]-3-[3,5-dimethoxy-4-[(2S,3R,4S,5S,6R)-3,4,5-trihydroxy-6-(hydroxymethyl)tetrahydropyran-2-yl]oxy-phenyl]propoxy]-6-(hydroxymethyl)tetrahydropyran-3,4,5-triol

> <PUBCHEM_IUPAC_CAS_NAME>
(2R,3R,4S,5S,6R)-2-[(2R)-2-[2,6-dimethoxy-4-[(E)-3-methoxyprop-1-enyl]phenoxy]-3-[3,5-dimethoxy-4-[[(2S,3R,4S,5S,6R)-3,4,5-trihydroxy-6-(hydroxymethyl)-2-oxanyl]oxy]phenyl]propoxy]-6-(hydroxymethyl)oxane-3,4,5-triol

> <PUBCHEM_IUPAC_NAME_MARKUP>
(2<I>R</I>,3<I>R</I>,4<I>S</I>,5<I>S</I>,6<I>R</I>)-2-[(2<I>R</I>)-2-[2,6-dimethoxy-4-[(<I>E</I>)-3-methoxyprop-1-enyl]phenoxy]-3-[3,5-dimethoxy-4-[(2<I>S</I>,3<I>R</I>,4<I>S</I>,5<I>S</I>,6<I>R</I>)-3,4,5-trihydroxy-6-(hydroxymethyl)oxan-2-yl]oxyphenyl]propoxy]-6-(hydroxymethyl)oxane-3,4,5-triol

> <PUBCHEM_IUPAC_NAME>
(2R,3R,4S,5S,6R)-2-[(2R)-2-[2,6-dimethoxy-4-[(E)-3-methoxyprop-1-enyl]phenoxy]-3-[3,5-dimethoxy-4-[(2S,3R,4S,5S,6R)-3,4,5-trihydroxy-6-(hydroxymethyl)oxan-2-yl]oxyphenyl]propoxy]-6-(hydroxymethyl)oxane-3,4,5-triol

> <PUBCHEM_IUPAC_SYSTEMATIC_NAME>
(2R,3R,4S,5S,6R)-2-[(2R)-2-[2,6-dimethoxy-4-[(E)-3-methoxyprop-1-enyl]phenoxy]-3-[4-[(2S,3R,4S,5S,6R)-6-(hydroxymethyl)-3,4,5-tris(oxidanyl)oxan-2-yl]oxy-3,5-dimethoxy-phenyl]propoxy]-6-(hydroxymethyl)oxane-3,4,5-triol

> <PUBCHEM_IUPAC_TRADITIONAL_NAME>
(2R,3R,4S,5S,6R)-2-[(2R)-2-[2,6-dimethoxy-4-[(E)-3-methoxyprop-1-enyl]phenoxy]-3-[3,5-dimethoxy-4-[(2S,3R,4S,5S,6R)-3,4,5-trihydroxy-6-methylol-tetrahydropyran-2-yl]oxy-phenyl]propoxy]-6-methylol-tetrahydropyran-3,4,5-triol

> <PUBCHEM_IUPAC_INCHI>
InChI=1S/C35H50O18/c1-44-8-6-7-17-10-20(45-2)32(21(11-17)46-3)50-19(16-49-34-30(42)28(40)26(38)24(14-36)51-34)9-18-12-22(47-4)33(23(13-18)48-5)53-35-31(43)29(41)27(39)25(15-37)52-35/h6-7,10-13,19,24-31,34-43H,8-9,14-16H2,1-5H3/b7-6+/t19-,24-,25-,26-,27-,28+,29+,30-,31-,34-,35+/m1/s1

> <PUBCHEM_IUPAC_INCHIKEY>
ITFLFYSEVUZCTP-WHSBWWSCSA-N

> <PUBCHEM_XLOGP3_AA>
-0.3

> <PUBCHEM_EXACT_MASS>
758.29971474

> <PUBCHEM_MOLECULAR_FORMULA>
C35H50O18

> <PUBCHEM_MOLECULAR_WEIGHT>
758.8

> <PUBCHEM_OPENEYE_CAN_SMILES>
COCC=CC1=CC(=C(C(=C1)OC)OC(CC2=CC(=C(C(=C2)OC)OC3C(C(C(C(O3)CO)O)O)O)OC)COC4C(C(C(C(O4)CO)O)O)O)OC

> <PUBCHEM_OPENEYE_ISO_SMILES>
COC/C=C/C1=CC(=C(C(=C1)OC)O[C@H](CC2=CC(=C(C(=C2)OC)O[C@H]3[C@@H]([C@H]([C@@H]([C@H](O3)CO)O)O)O)OC)CO[C@H]4[C@@H]([C@H]([C@@H]([C@H](O4)CO)O)O)O)OC

> <PUBCHEM_CACTVS_TPSA>
254

> <PUBCHEM_MONOISOTOPIC_WEIGHT>
758.29971474

> <PUBCHEM_TOTAL_CHARGE>
0

> <PUBCHEM_HEAVY_ATOM_COUNT>
53

> <PUBCHEM_ATOM_DEF_STEREO_COUNT>
11

> <PUBCHEM_ATOM_UDEF_STEREO_COUNT>
0

> <PUBCHEM_BOND_DEF_STEREO_COUNT>
1

> <PUBCHEM_BOND_UDEF_STEREO_COUNT>
0

> <PUBCHEM_ISOTOPIC_ATOM_COUNT>
0

> <PUBCHEM_COMPONENT_COUNT>
1

> <PUBCHEM_CACTVS_TAUTO_COUNT>
-1

> <PUBCHEM_COORDINATE_TYPE>
1
5
255

> <PUBCHEM_BONDANNOTATIONS>
26  10  6
32  13  5
22  29  5
27  30  5
23  3  5
34  36  8
34  37  8
35  38  8
35  39  8
36  38  8
37  39  8
19  4  5
40  41  8
40  42  8
41  45  8
42  46  8
45  47  8
46  47  8
20  5  6
21  6  6
28  7  5
24  8  5
25  9  6

$$$$
