 
  -OEChem-10192103282D

 89 93  0     1  0  0  0  0  0999 V2000
    6.0580    1.3463    0.0000 O   0  0  0  0  0  0  0  0  0  0  0  0
    6.8671   -5.2415    0.0000 O   0  0  0  0  0  0  0  0  0  0  0  0
    5.1350   -3.2415    0.0000 O   0  0  0  0  0  0  0  0  0  0  0  0
    7.8376   -3.7470    0.0000 O   0  0  0  0  0  0  0  0  0  0  0  0
    6.8671   -3.2415    0.0000 O   0  0  0  0  0  0  0  0  0  0  0  0
    9.3703    1.7064    0.0000 O   0  0  0  0  0  0  0  0  0  0  0  0
    8.9494    3.0018    0.0000 O   0  0  0  0  0  0  0  0  0  0  0  0
    5.1350   -6.2415    0.0000 O   0  0  0  0  0  0  0  0  0  0  0  0
   10.1818   -3.9051    0.0000 O   0  0  0  0  0  0  0  0  0  0  0  0
    8.8546   -6.1264    0.0000 O   0  0  0  0  0  0  0  0  0  0  0  0
    3.4030   -5.2415    0.0000 O   0  0  0  0  0  0  0  0  0  0  0  0
   11.0100   -4.7652    0.0000 O   0  0  0  0  0  0  0  0  0  0  0  0
    5.1350   -2.2415    0.0000 O   0  0  0  0  0  0  0  0  0  0  0  0
    2.5369   -3.7415    0.0000 O   0  0  0  0  0  0  0  0  0  0  0  0
    6.0050    5.7425    0.0000 O   0  0  0  0  0  0  0  0  0  0  0  0
    4.0159    5.5334    0.0000 O   0  0  0  0  0  0  0  0  0  0  0  0
    7.6761    1.3463    0.0000 C   0  0  2  0  0  0  0  0  0  0  0  0
    7.3671    2.2973    0.0000 C   0  0  2  0  0  0  0  0  0  0  0  0
    6.8671    0.7585    0.0000 C   0  0  2  0  0  0  0  0  0  0  0  0
    6.3671    2.2973    0.0000 C   0  0  2  0  0  0  0  0  0  0  0  0
    8.6271    1.0373    0.0000 C   0  0  0  0  0  0  0  0  0  0  0  0
    7.9548    3.1064    0.0000 C   0  0  0  0  0  0  0  0  0  0  0  0
    6.8671   -0.2415    0.0000 C   0  0  0  0  0  0  0  0  0  0  0  0
    6.0010   -4.7415    0.0000 C   0  0  2  0  0  0  0  0  0  0  0  0
    5.7793    3.1064    0.0000 C   0  0  0  0  0  0  0  0  0  0  0  0
    5.1350   -5.2415    0.0000 C   0  0  2  0  0  0  0  0  0  0  0  0
    9.3158   -4.4051    0.0000 C   0  0  1  0  0  0  0  0  0  0  0  0
    8.6466   -5.1482    0.0000 C   0  0  2  0  0  0  0  0  0  0  0  0
    7.7331   -4.7415    0.0000 C   0  0  2  0  0  0  0  0  0  0  0  0
    6.0010   -3.7415    0.0000 C   0  0  1  0  0  0  0  0  0  0  0  0
    4.2690   -4.7415    0.0000 C   0  0  1  0  0  0  0  0  0  0  0  0
    4.2690   -3.7415    0.0000 C   0  0  1  0  0  0  0  0  0  0  0  0
    8.8158   -3.5391    0.0000 C   0  0  0  0  0  0  0  0  0  0  0  0
    6.0010   -0.7415    0.0000 C   0  0  0  0  0  0  0  0  0  0  0  0
    7.7331   -0.7415    0.0000 C   0  0  0  0  0  0  0  0  0  0  0  0
   10.0589   -5.0742    0.0000 C   0  0  0  0  0  0  0  0  0  0  0  0
    6.1860    4.0199    0.0000 C   0  0  0  0  0  0  0  0  0  0  0  0
    4.7848    3.0018    0.0000 C   0  0  0  0  0  0  0  0  0  0  0  0
    6.8671   -2.2415    0.0000 C   0  0  0  0  0  0  0  0  0  0  0  0
    3.4030   -3.2415    0.0000 C   0  0  0  0  0  0  0  0  0  0  0  0
    6.0010   -1.7415    0.0000 C   0  0  0  0  0  0  0  0  0  0  0  0
    7.7331   -1.7415    0.0000 C   0  0  0  0  0  0  0  0  0  0  0  0
    5.5982    4.8289    0.0000 C   0  0  0  0  0  0  0  0  0  0  0  0
    4.1970    3.8109    0.0000 C   0  0  0  0  0  0  0  0  0  0  0  0
    4.6037    4.7244    0.0000 C   0  0  0  0  0  0  0  0  0  0  0  0
    4.2690   -1.7415    0.0000 C   0  0  0  0  0  0  0  0  0  0  0  0
    5.4172    6.5515    0.0000 C   0  0  0  0  0  0  0  0  0  0  0  0
    8.1145    1.7847    0.0000 H   0  0  0  0  0  0  0  0  0  0  0  0
    7.0856    2.8498    0.0000 H   0  0  0  0  0  0  0  0  0  0  0  0
    7.4195    0.4770    0.0000 H   0  0  0  0  0  0  0  0  0  0  0  0
    5.7547    2.2004    0.0000 H   0  0  0  0  0  0  0  0  0  0  0  0
    8.3361    0.4898    0.0000 H   0  0  0  0  0  0  0  0  0  0  0  0
    9.1157    0.6556    0.0000 H   0  0  0  0  0  0  0  0  0  0  0  0
    8.1257    3.7024    0.0000 H   0  0  0  0  0  0  0  0  0  0  0  0
    7.3976    3.3782    0.0000 H   0  0  0  0  0  0  0  0  0  0  0  0
    6.0010   -5.3615    0.0000 H   0  0  0  0  0  0  0  0  0  0  0  0
    4.5981   -5.5515    0.0000 H   0  0  0  0  0  0  0  0  0  0  0  0
    9.2455   -5.3087    0.0000 H   0  0  0  0  0  0  0  0  0  0  0  0
    7.2131   -4.4038    0.0000 H   0  0  0  0  0  0  0  0  0  0  0  0
    6.0010   -3.1215    0.0000 H   0  0  0  0  0  0  0  0  0  0  0  0
    4.2690   -5.3615    0.0000 H   0  0  0  0  0  0  0  0  0  0  0  0
    4.2690   -3.1215    0.0000 H   0  0  0  0  0  0  0  0  0  0  0  0
    9.3822   -3.2869    0.0000 H   0  0  0  0  0  0  0  0  0  0  0  0
    8.6242   -2.9494    0.0000 H   0  0  0  0  0  0  0  0  0  0  0  0
    5.4641   -0.4315    0.0000 H   0  0  0  0  0  0  0  0  0  0  0  0
    8.2700   -0.4315    0.0000 H   0  0  0  0  0  0  0  0  0  0  0  0
    9.5703   -5.4559    0.0000 H   0  0  0  0  0  0  0  0  0  0  0  0
   10.3500   -5.6216    0.0000 H   0  0  0  0  0  0  0  0  0  0  0  0
    6.8026    4.0847    0.0000 H   0  0  0  0  0  0  0  0  0  0  0  0
    4.5326    2.4354    0.0000 H   0  0  0  0  0  0  0  0  0  0  0  0
    3.8015   -2.7665    0.0000 H   0  0  0  0  0  0  0  0  0  0  0  0
    3.0044   -2.7665    0.0000 H   0  0  0  0  0  0  0  0  0  0  0  0
    9.9599    1.5148    0.0000 H   0  0  0  0  0  0  0  0  0  0  0  0
    9.3138    3.5034    0.0000 H   0  0  0  0  0  0  0  0  0  0  0  0
    8.2700   -2.0515    0.0000 H   0  0  0  0  0  0  0  0  0  0  0  0
    4.5981   -6.5515    0.0000 H   0  0  0  0  0  0  0  0  0  0  0  0
   10.1818   -3.2851    0.0000 H   0  0  0  0  0  0  0  0  0  0  0  0
    8.3938   -6.5412    0.0000 H   0  0  0  0  0  0  0  0  0  0  0  0
    3.4030   -5.8615    0.0000 H   0  0  0  0  0  0  0  0  0  0  0  0
    3.5804    3.7460    0.0000 H   0  0  0  0  0  0  0  0  0  0  0  0
   11.4707   -5.1801    0.0000 H   0  0  0  0  0  0  0  0  0  0  0  0
    2.0000   -3.4315    0.0000 H   0  0  0  0  0  0  0  0  0  0  0  0
    4.5790   -1.2046    0.0000 H   0  0  0  0  0  0  0  0  0  0  0  0
    3.7320   -1.4315    0.0000 H   0  0  0  0  0  0  0  0  0  0  0  0
    3.9590   -2.2784    0.0000 H   0  0  0  0  0  0  0  0  0  0  0  0
    3.3993    5.4686    0.0000 H   0  0  0  0  0  0  0  0  0  0  0  0
    5.9188    6.9159    0.0000 H   0  0  0  0  0  0  0  0  0  0  0  0
    5.0527    7.0531    0.0000 H   0  0  0  0  0  0  0  0  0  0  0  0
    4.9156    6.1871    0.0000 H   0  0  0  0  0  0  0  0  0  0  0  0
  1 19  1  0  0  0  0
  1 20  1  0  0  0  0
 24  2  1  6  0  0  0
 29  2  1  6  0  0  0
  3 30  1  0  0  0  0
  3 32  1  0  0  0  0
  4 29  1  0  0  0  0
  4 33  1  0  0  0  0
 30  5  1  1  0  0  0
  5 39  1  0  0  0  0
  6 21  1  0  0  0  0
  6 73  1  0  0  0  0
  7 22  1  0  0  0  0
  7 74  1  0  0  0  0
 26  8  1  1  0  0  0
  8 76  1  0  0  0  0
 27  9  1  1  0  0  0
  9 77  1  0  0  0  0
 28 10  1  1  0  0  0
 10 78  1  0  0  0  0
 31 11  1  6  0  0  0
 11 79  1  0  0  0  0
 12 36  1  0  0  0  0
 12 81  1  0  0  0  0
 13 41  1  0  0  0  0
 13 46  1  0  0  0  0
 14 40  1  0  0  0  0
 14 82  1  0  0  0  0
 15 43  1  0  0  0  0
 15 47  1  0  0  0  0
 16 45  1  0  0  0  0
 16 86  1  0  0  0  0
 17 18  1  0  0  0  0
 17 19  1  0  0  0  0
 17 21  1  1  0  0  0
 17 48  1  0  0  0  0
 18 20  1  0  0  0  0
 18 22  1  6  0  0  0
 18 49  1  0  0  0  0
 19 23  1  6  0  0  0
 19 50  1  0  0  0  0
 20 25  1  1  0  0  0
 20 51  1  0  0  0  0
 21 52  1  0  0  0  0
 21 53  1  0  0  0  0
 22 54  1  0  0  0  0
 22 55  1  0  0  0  0
 23 34  2  0  0  0  0
 23 35  1  0  0  0  0
 24 26  1  0  0  0  0
 24 30  1  0  0  0  0
 24 56  1  0  0  0  0
 25 37  2  0  0  0  0
 25 38  1  0  0  0  0
 26 31  1  0  0  0  0
 26 57  1  0  0  0  0
 27 28  1  0  0  0  0
 27 33  1  0  0  0  0
 27 36  1  0  0  0  0
 28 29  1  0  0  0  0
 28 58  1  0  0  0  0
 29 59  1  0  0  0  0
 30 60  1  0  0  0  0
 31 32  1  0  0  0  0
 31 61  1  0  0  0  0
 32 40  1  1  0  0  0
 32 62  1  0  0  0  0
 33 63  1  0  0  0  0
 33 64  1  0  0  0  0
 34 41  1  0  0  0  0
 34 65  1  0  0  0  0
 35 42  2  0  0  0  0
 35 66  1  0  0  0  0
 36 67  1  0  0  0  0
 36 68  1  0  0  0  0
 37 43  1  0  0  0  0
 37 69  1  0  0  0  0
 38 44  2  0  0  0  0
 38 70  1  0  0  0  0
 39 41  2  0  0  0  0
 39 42  1  0  0  0  0
 40 71  1  0  0  0  0
 40 72  1  0  0  0  0
 42 75  1  0  0  0  0
 43 45  2  0  0  0  0
 44 45  1  0  0  0  0
 44 80  1  0  0  0  0
 46 83  1  0  0  0  0
 46 84  1  0  0  0  0
 46 85  1  0  0  0  0
 47 87  1  0  0  0  0
 47 88  1  0  0  0  0
 47 89  1  0  0  0  0
M  END
> <PUBCHEM_COMPOUND_CID>
11767553

> <PUBCHEM_COMPOUND_CANONICALIZED>
1

> <PUBCHEM_CACTVS_COMPLEXITY>
978

> <PUBCHEM_CACTVS_HBOND_ACCEPTOR>
16

> <PUBCHEM_CACTVS_HBOND_DONOR>
9

> <PUBCHEM_CACTVS_ROTATABLE_BOND>
12

> <PUBCHEM_CACTVS_SUBSKEYS>
AAADcfB4PgAAAAAAAAAAAAAAAAAAASJAAAA0YIAAAAAAAAABQAAAGgAACAAADVSwmAMyDoAABgCAAiBCAAACCAAgIAAIiAAGiIgdNiKGMRqieCOlwBEPuAfA4PwOoAABAAAAQABAAAIAAACAAAAAAAAAAA==

> <PUBCHEM_IUPAC_OPENEYE_NAME>
(2R,3S,4S,5R,6S)-5-[(2S,3R,4R)-3,4-dihydroxy-4-(hydroxymethyl)tetrahydrofuran-2-yl]oxy-6-[4-[(2R,3S,4S,5R)-5-(4-hydroxy-3-methoxy-phenyl)-3,4-bis(hydroxymethyl)tetrahydrofuran-2-yl]-2-methoxy-phenoxy]-2-(hydroxymethyl)tetrahydropyran-3,4-diol

> <PUBCHEM_IUPAC_CAS_NAME>
(2R,3S,4S,5R,6S)-5-[[(2S,3R,4R)-3,4-dihydroxy-4-(hydroxymethyl)-2-oxolanyl]oxy]-6-[4-[(2R,3S,4S,5R)-5-(4-hydroxy-3-methoxyphenyl)-3,4-bis(hydroxymethyl)-2-oxolanyl]-2-methoxyphenoxy]-2-(hydroxymethyl)oxane-3,4-diol

> <PUBCHEM_IUPAC_NAME_MARKUP>
(2<I>R</I>,3<I>S</I>,4<I>S</I>,5<I>R</I>,6<I>S</I>)-5-[(2<I>S</I>,3<I>R</I>,4<I>R</I>)-3,4-dihydroxy-4-(hydroxymethyl)oxolan-2-yl]oxy-6-[4-[(2<I>R</I>,3<I>S</I>,4<I>S</I>,5<I>R</I>)-5-(4-hydroxy-3-methoxyphenyl)-3,4-bis(hydroxymethyl)oxolan-2-yl]-2-methoxyphenoxy]-2-(hydroxymethyl)oxane-3,4-diol

> <PUBCHEM_IUPAC_NAME>
(2R,3S,4S,5R,6S)-5-[(2S,3R,4R)-3,4-dihydroxy-4-(hydroxymethyl)oxolan-2-yl]oxy-6-[4-[(2R,3S,4S,5R)-5-(4-hydroxy-3-methoxyphenyl)-3,4-bis(hydroxymethyl)oxolan-2-yl]-2-methoxyphenoxy]-2-(hydroxymethyl)oxane-3,4-diol

> <PUBCHEM_IUPAC_SYSTEMATIC_NAME>
(2R,3S,4S,5R,6S)-6-[4-[(2R,3S,4S,5R)-3,4-bis(hydroxymethyl)-5-(3-methoxy-4-oxidanyl-phenyl)oxolan-2-yl]-2-methoxy-phenoxy]-2-(hydroxymethyl)-5-[(2S,3R,4R)-4-(hydroxymethyl)-3,4-bis(oxidanyl)oxolan-2-yl]oxy-oxane-3,4-diol

> <PUBCHEM_IUPAC_TRADITIONAL_NAME>
(2R,3S,4S,5R,6S)-5-[(2S,3R,4R)-3,4-dihydroxy-4-methylol-tetrahydrofuran-2-yl]oxy-6-[4-[(2R,3S,4S,5R)-5-(4-hydroxy-3-methoxy-phenyl)-3,4-dimethylol-tetrahydrofuran-2-yl]-2-methoxy-phenoxy]-2-methylol-tetrahydropyran-3,4-diol

> <PUBCHEM_IUPAC_INCHI>
InChI=1S/C31H42O16/c1-41-20-7-14(3-5-18(20)36)25-16(9-32)17(10-33)26(46-25)15-4-6-19(21(8-15)42-2)44-29-27(24(38)23(37)22(11-34)45-29)47-30-28(39)31(40,12-35)13-43-30/h3-8,16-17,22-30,32-40H,9-13H2,1-2H3/t16-,17-,22-,23-,24+,25+,26+,27-,28+,29-,30+,31-/m1/s1

> <PUBCHEM_IUPAC_INCHIKEY>
GKSZOVHKODBYMX-ZGSXILORSA-N

> <PUBCHEM_XLOGP3_AA>
-1.7

> <PUBCHEM_EXACT_MASS>
670.24728525

> <PUBCHEM_MOLECULAR_FORMULA>
C31H42O16

> <PUBCHEM_MOLECULAR_WEIGHT>
670.7

> <PUBCHEM_OPENEYE_CAN_SMILES>
COC1=C(C=CC(=C1)C2C(C(C(O2)C3=CC(=C(C=C3)OC4C(C(C(C(O4)CO)O)O)OC5C(C(CO5)(CO)O)O)OC)CO)CO)O

> <PUBCHEM_OPENEYE_ISO_SMILES>
COC1=C(C=CC(=C1)[C@H]2[C@@H]([C@H]([C@@H](O2)C3=CC(=C(C=C3)O[C@H]4[C@@H]([C@H]([C@@H]([C@H](O4)CO)O)O)O[C@H]5[C@@H]([C@](CO5)(CO)O)O)OC)CO)CO)O

> <PUBCHEM_CACTVS_TPSA>
247

> <PUBCHEM_MONOISOTOPIC_WEIGHT>
670.24728525

> <PUBCHEM_TOTAL_CHARGE>
0

> <PUBCHEM_HEAVY_ATOM_COUNT>
47

> <PUBCHEM_ATOM_DEF_STEREO_COUNT>
12

> <PUBCHEM_ATOM_UDEF_STEREO_COUNT>
0

> <PUBCHEM_BOND_DEF_STEREO_COUNT>
0

> <PUBCHEM_BOND_UDEF_STEREO_COUNT>
0

> <PUBCHEM_ISOTOPIC_ATOM_COUNT>
0

> <PUBCHEM_COMPONENT_COUNT>
1

> <PUBCHEM_CACTVS_TAUTO_COUNT>
-1

> <PUBCHEM_COORDINATE_TYPE>
1
5
255

> <PUBCHEM_BONDANNOTATIONS>
28  10  5
31  11  6
17  21  5
18  22  6
19  23  6
24  2  6
29  2  6
20  25  5
23  34  8
23  35  8
25  37  8
25  38  8
32  40  5
34  41  8
35  42  8
37  43  8
38  44  8
39  41  8
39  42  8
43  45  8
44  45  8
30  5  5
26  8  5
27  9  5

$$$$
