 
  -OEChem-10192103572D

 60 62  0     1  0  0  0  0  0999 V2000
    6.0010    1.3375    0.0000 O   0  0  0  0  0  0  0  0  0  0  0  0
    4.6350    2.7035    0.0000 O   0  0  0  0  0  0  0  0  0  0  0  0
    4.2690   -0.6625    0.0000 O   0  0  0  0  0  0  0  0  0  0  0  0
    4.2690    1.3375    0.0000 O   0  0  0  0  0  0  0  0  0  0  0  0
    6.0010   -1.6625    0.0000 O   0  0  0  0  0  0  0  0  0  0  0  0
    6.3087    0.8527    0.0000 O   0  0  0  0  0  0  0  0  0  0  0  0
    7.7331   -0.6625    0.0000 O   0  0  0  0  0  0  0  0  0  0  0  0
    3.4030    0.8375    0.0000 O   0  0  0  0  0  0  0  0  0  0  0  0
    5.1350   -2.1625    0.0000 O   0  0  0  0  0  0  0  0  0  0  0  0
    7.6350    2.7035    0.0000 O   0  0  0  0  0  0  0  0  0  0  0  0
    7.7331    1.3375    0.0000 O   0  0  0  0  0  0  0  0  0  0  0  0
    6.6350    4.4356    0.0000 O   0  0  0  0  0  0  0  0  0  0  0  0
    2.5369   -1.6625    0.0000 O   0  0  0  0  0  0  0  0  0  0  0  0
    2.5369   -3.6625    0.0000 O   0  0  0  0  0  0  0  0  0  0  0  0
    4.2690   -4.6625    0.0000 O   0  0  0  0  0  0  0  0  0  0  0  0
    6.0010   -3.6625    0.0000 O   0  0  0  0  0  0  0  0  0  0  0  0
    5.1350    0.8375    0.0000 C   0  0  1  0  0  0  0  0  0  0  0  0
    5.1350    1.8375    0.0000 C   0  0  2  0  0  0  0  0  0  0  0  0
    5.1350   -0.1625    0.0000 C   0  0  2  0  0  0  0  0  0  0  0  0
    6.0010   -0.6625    0.0000 C   0  0  2  0  0  0  0  0  0  0  0  0
    6.1350    1.8375    0.0000 C   0  0  1  0  0  0  0  0  0  0  0  0
    6.8671   -0.1625    0.0000 C   0  0  2  0  0  0  0  0  0  0  0  0
    4.2690    0.3375    0.0000 C   0  0  0  0  0  0  0  0  0  0  0  0
    6.6350    2.7035    0.0000 C   0  0  2  0  0  0  0  0  0  0  0  0
    6.8671    0.8375    0.0000 C   0  0  1  0  0  0  0  0  0  0  0  0
    6.1350    3.5695    0.0000 C   0  0  1  0  0  0  0  0  0  0  0  0
    5.1350    3.5695    0.0000 C   0  0  0  0  0  0  0  0  0  0  0  0
    4.2690   -1.6625    0.0000 C   0  0  3  0  0  0  0  0  0  0  0  0
    3.4030   -2.1625    0.0000 C   0  0  3  0  0  0  0  0  0  0  0  0
    3.4030   -3.1625    0.0000 C   0  0  3  0  0  0  0  0  0  0  0  0
    4.2690   -3.6625    0.0000 C   0  0  3  0  0  0  0  0  0  0  0  0
    5.1350   -3.1625    0.0000 C   0  0  3  0  0  0  0  0  0  0  0  0
    5.1350   -0.7825    0.0000 H   0  0  0  0  0  0  0  0  0  0  0  0
    5.4641   -0.9725    0.0000 H   0  0  0  0  0  0  0  0  0  0  0  0
    6.7456    1.7298    0.0000 H   0  0  0  0  0  0  0  0  0  0  0  0
    6.8671   -0.7825    0.0000 H   0  0  0  0  0  0  0  0  0  0  0  0
    3.8705   -0.1375    0.0000 H   0  0  0  0  0  0  0  0  0  0  0  0
    4.6675   -0.1375    0.0000 H   0  0  0  0  0  0  0  0  0  0  0  0
    6.9450    2.1666    0.0000 H   0  0  0  0  0  0  0  0  0  0  0  0
    7.4040    0.5275    0.0000 H   0  0  0  0  0  0  0  0  0  0  0  0
    6.7550    3.5695    0.0000 H   0  0  0  0  0  0  0  0  0  0  0  0
    5.2427    4.1801    0.0000 H   0  0  0  0  0  0  0  0  0  0  0  0
    4.5524    3.7816    0.0000 H   0  0  0  0  0  0  0  0  0  0  0  0
    3.7320   -1.3525    0.0000 H   0  0  0  0  0  0  0  0  0  0  0  0
    3.7320    1.6475    0.0000 H   0  0  0  0  0  0  0  0  0  0  0  0
    2.8660   -2.4725    0.0000 H   0  0  0  0  0  0  0  0  0  0  0  0
    2.8660   -2.8525    0.0000 H   0  0  0  0  0  0  0  0  0  0  0  0
    6.5380   -1.9725    0.0000 H   0  0  0  0  0  0  0  0  0  0  0  0
    5.8337    0.4542    0.0000 H   0  0  0  0  0  0  0  0  0  0  0  0
    3.7320   -3.9725    0.0000 H   0  0  0  0  0  0  0  0  0  0  0  0
    5.1350   -3.7825    0.0000 H   0  0  0  0  0  0  0  0  0  0  0  0
    8.2700   -0.3525    0.0000 H   0  0  0  0  0  0  0  0  0  0  0  0
    2.8660    0.5275    0.0000 H   0  0  0  0  0  0  0  0  0  0  0  0
    7.9450    3.2405    0.0000 H   0  0  0  0  0  0  0  0  0  0  0  0
    8.2700    1.0275    0.0000 H   0  0  0  0  0  0  0  0  0  0  0  0
    6.3250    4.9725    0.0000 H   0  0  0  0  0  0  0  0  0  0  0  0
    2.0000   -1.9725    0.0000 H   0  0  0  0  0  0  0  0  0  0  0  0
    2.5369   -4.2825    0.0000 H   0  0  0  0  0  0  0  0  0  0  0  0
    4.8059   -4.9725    0.0000 H   0  0  0  0  0  0  0  0  0  0  0  0
    6.0010   -4.2825    0.0000 H   0  0  0  0  0  0  0  0  0  0  0  0
  1 17  1  0  0  0  0
  1 25  1  0  0  0  0
  2 18  1  0  0  0  0
  2 27  1  0  0  0  0
 19  3  1  6  0  0  0
  3 28  1  0  0  0  0
 18  4  1  6  0  0  0
  4 45  1  0  0  0  0
 20  5  1  6  0  0  0
  5 48  1  0  0  0  0
 21  6  1  1  0  0  0
  6 49  1  0  0  0  0
 22  7  1  6  0  0  0
  7 52  1  0  0  0  0
  8 23  1  0  0  0  0
  8 53  1  0  0  0  0
  9 28  1  0  0  0  0
  9 32  1  0  0  0  0
 24 10  1  6  0  0  0
 10 54  1  0  0  0  0
 25 11  1  1  0  0  0
 11 55  1  0  0  0  0
 26 12  1  1  0  0  0
 12 56  1  0  0  0  0
 13 29  1  0  0  0  0
 13 57  1  0  0  0  0
 14 30  1  0  0  0  0
 14 58  1  0  0  0  0
 15 31  1  0  0  0  0
 15 59  1  0  0  0  0
 16 32  1  0  0  0  0
 16 60  1  0  0  0  0
 17 18  1  0  0  0  0
 17 19  1  0  0  0  0
 17 23  1  1  0  0  0
 18 21  1  0  0  0  0
 19 20  1  0  0  0  0
 19 33  1  0  0  0  0
 20 22  1  0  0  0  0
 20 34  1  0  0  0  0
 21 24  1  0  0  0  0
 21 35  1  0  0  0  0
 22 25  1  0  0  0  0
 22 36  1  0  0  0  0
 23 37  1  0  0  0  0
 23 38  1  0  0  0  0
 24 26  1  0  0  0  0
 24 39  1  0  0  0  0
 25 40  1  0  0  0  0
 26 27  1  0  0  0  0
 26 41  1  0  0  0  0
 27 42  1  0  0  0  0
 27 43  1  0  0  0  0
 28 29  1  0  0  0  0
 28 44  1  0  0  0  0
 29 30  1  0  0  0  0
 29 46  1  0  0  0  0
 30 31  1  0  0  0  0
 30 47  1  0  0  0  0
 31 32  1  0  0  0  0
 31 50  1  0  0  0  0
 32 51  1  0  0  0  0
M  END
> <PUBCHEM_COMPOUND_CID>
129711857

> <PUBCHEM_COMPOUND_CANONICALIZED>
1

> <PUBCHEM_CACTVS_COMPLEXITY>
654

> <PUBCHEM_CACTVS_HBOND_ACCEPTOR>
16

> <PUBCHEM_CACTVS_HBOND_DONOR>
12

> <PUBCHEM_CACTVS_ROTATABLE_BOND>
4

> <PUBCHEM_CACTVS_SUBSKEYS>
AAADceB4PgAAAAAAAAAAAAAAAAAAAAAAAAAkSJAAAAAAAAAAAAAAGgAACAAADFSwgAMACAAABgAAAAAAAAAAAAAAAAAAAAAAAAAREAIAAAAiQAAFAAAHAAHA4PwOAAAAAAAAAAAAAAAAAAAAAAAAAAAAAA==

> <PUBCHEM_IUPAC_OPENEYE_NAME>
(2S,3R,4S,5R)-2-[(2R,3S,4S,5R,6R)-4,5,6-trihydroxy-2-(hydroxymethyl)-3-(3,4,5,6-tetrahydroxytetrahydropyran-2-yl)oxy-tetrahydropyran-2-yl]tetrahydropyran-2,3,4,5-tetrol

> <PUBCHEM_IUPAC_CAS_NAME>
(2S,3R,4S,5R)-2-[(2R,3S,4S,5R,6R)-4,5,6-trihydroxy-2-(hydroxymethyl)-3-[(3,4,5,6-tetrahydroxy-2-oxanyl)oxy]-2-oxanyl]oxane-2,3,4,5-tetrol

> <PUBCHEM_IUPAC_NAME_MARKUP>
(2<I>S</I>,3<I>R</I>,4<I>S</I>,5<I>R</I>)-2-[(2<I>R</I>,3<I>S</I>,4<I>S</I>,5<I>R</I>,6<I>R</I>)-4,5,6-trihydroxy-2-(hydroxymethyl)-3-(3,4,5,6-tetrahydroxyoxan-2-yl)oxyoxan-2-yl]oxane-2,3,4,5-tetrol

> <PUBCHEM_IUPAC_NAME>
(2S,3R,4S,5R)-2-[(2R,3S,4S,5R,6R)-4,5,6-trihydroxy-2-(hydroxymethyl)-3-(3,4,5,6-tetrahydroxyoxan-2-yl)oxyoxan-2-yl]oxane-2,3,4,5-tetrol

> <PUBCHEM_IUPAC_SYSTEMATIC_NAME>
(2S,3R,4S,5R)-2-[(2R,3S,4S,5R,6R)-2-(hydroxymethyl)-4,5,6-tris(oxidanyl)-3-[3,4,5,6-tetrakis(oxidanyl)oxan-2-yl]oxy-oxan-2-yl]oxane-2,3,4,5-tetrol

> <PUBCHEM_IUPAC_TRADITIONAL_NAME>
(2S,3R,4S,5R)-2-[(2R,3S,4S,5R,6R)-4,5,6-trihydroxy-2-methylol-3-(3,4,5,6-tetrahydroxytetrahydropyran-2-yl)oxy-tetrahydropyran-2-yl]tetrahydropyran-2,3,4,5-tetrol

> <PUBCHEM_IUPAC_INCHI>
InChI=1S/C16H28O16/c17-2-15(16(28)10(25)4(19)3(18)1-29-16)11(6(21)8(23)13(27)32-15)30-14-9(24)5(20)7(22)12(26)31-14/h3-14,17-28H,1-2H2/t3-,4+,5?,6+,7?,8-,9?,10-,11+,12?,13-,14?,15-,16+/m1/s1

> <PUBCHEM_IUPAC_INCHIKEY>
VVNPTYVZBORPIM-FKZBNABKSA-N

> <PUBCHEM_XLOGP3_AA>
-7.7

> <PUBCHEM_EXACT_MASS>
476.13773480

> <PUBCHEM_MOLECULAR_FORMULA>
C16H28O16

> <PUBCHEM_MOLECULAR_WEIGHT>
476.4

> <PUBCHEM_OPENEYE_CAN_SMILES>
C1C(C(C(C(O1)(C2(C(C(C(C(O2)O)O)O)OC3C(C(C(C(O3)O)O)O)O)CO)O)O)O)O

> <PUBCHEM_OPENEYE_ISO_SMILES>
C1[C@H]([C@@H]([C@H]([C@](O1)([C@]2([C@H]([C@H]([C@H]([C@@H](O2)O)O)O)OC3C(C(C(C(O3)O)O)O)O)CO)O)O)O)O

> <PUBCHEM_CACTVS_TPSA>
280

> <PUBCHEM_MONOISOTOPIC_WEIGHT>
476.13773480

> <PUBCHEM_TOTAL_CHARGE>
0

> <PUBCHEM_HEAVY_ATOM_COUNT>
32

> <PUBCHEM_ATOM_DEF_STEREO_COUNT>
9

> <PUBCHEM_ATOM_UDEF_STEREO_COUNT>
5

> <PUBCHEM_BOND_DEF_STEREO_COUNT>
0

> <PUBCHEM_BOND_UDEF_STEREO_COUNT>
0

> <PUBCHEM_ISOTOPIC_ATOM_COUNT>
0

> <PUBCHEM_COMPONENT_COUNT>
1

> <PUBCHEM_CACTVS_TAUTO_COUNT>
-1

> <PUBCHEM_COORDINATE_TYPE>
1
5
255

> <PUBCHEM_BONDANNOTATIONS>
24  10  6
25  11  5
26  12  5
29  13  3
30  14  3
31  15  3
32  16  3
17  23  5
19  3  6
28  3  3
18  4  6
20  5  6
21  6  5
22  7  6

$$$$
