 
  -OEChem-10192103332D

 25 26  0     0  0  0  0  0  0999 V2000
    3.8660    1.5490    0.0000 O   0  0  0  0  0  0  0  0  0  0  0  0
    6.8660   -0.1830    0.0000 O   0  0  0  0  0  0  0  0  0  0  0  0
    3.8660   -0.1830    0.0000 O   0  0  0  0  0  0  0  0  0  0  0  0
    5.3660   -1.0490    0.0000 O   0  0  0  0  0  0  0  0  0  0  0  0
    2.8660    1.5490    0.0000 C   0  0  0  0  0  0  0  0  0  0  0  0
    7.3660   -1.0490    0.0000 C   0  0  0  0  0  0  0  0  0  0  0  0
    2.0000    1.0490    0.0000 C   0  0  0  0  0  0  0  0  0  0  0  0
    2.0000    2.0490    0.0000 C   0  0  0  0  0  0  0  0  0  0  0  0
    7.3660   -2.0490    0.0000 C   0  0  0  0  0  0  0  0  0  0  0  0
    8.2320   -1.5490    0.0000 C   0  0  0  0  0  0  0  0  0  0  0  0
    4.3660    0.6830    0.0000 C   0  0  0  0  0  0  0  0  0  0  0  0
    5.8660   -0.1830    0.0000 C   0  0  0  0  0  0  0  0  0  0  0  0
    5.3660    0.6830    0.0000 C   0  0  0  0  0  0  0  0  0  0  0  0
    3.0265    0.9502    0.0000 H   0  0  0  0  0  0  0  0  0  0  0  0
    7.8044   -0.6106    0.0000 H   0  0  0  0  0  0  0  0  0  0  0  0
    1.3894    0.9414    0.0000 H   0  0  0  0  0  0  0  0  0  0  0  0
    2.2120    0.4664    0.0000 H   0  0  0  0  0  0  0  0  0  0  0  0
    2.2120    2.6316    0.0000 H   0  0  0  0  0  0  0  0  0  0  0  0
    1.3894    2.1567    0.0000 H   0  0  0  0  0  0  0  0  0  0  0  0
    6.7554   -2.1567    0.0000 H   0  0  0  0  0  0  0  0  0  0  0  0
    7.5781   -2.6316    0.0000 H   0  0  0  0  0  0  0  0  0  0  0  0
    8.6306   -2.0240    0.0000 H   0  0  0  0  0  0  0  0  0  0  0  0
    8.6306   -1.0741    0.0000 H   0  0  0  0  0  0  0  0  0  0  0  0
    5.9486    0.8951    0.0000 H   0  0  0  0  0  0  0  0  0  0  0  0
    5.2584    1.2936    0.0000 H   0  0  0  0  0  0  0  0  0  0  0  0
  1  5  1  0  0  0  0
  1 11  1  0  0  0  0
  2  6  1  0  0  0  0
  2 12  1  0  0  0  0
  3 11  2  0  0  0  0
  4 12  2  0  0  0  0
  5  7  1  0  0  0  0
  5  8  1  0  0  0  0
  5 14  1  0  0  0  0
  6  9  1  0  0  0  0
  6 10  1  0  0  0  0
  6 15  1  0  0  0  0
  7  8  1  0  0  0  0
  7 16  1  0  0  0  0
  7 17  1  0  0  0  0
  8 18  1  0  0  0  0
  8 19  1  0  0  0  0
  9 10  1  0  0  0  0
  9 20  1  0  0  0  0
  9 21  1  0  0  0  0
 10 22  1  0  0  0  0
 10 23  1  0  0  0  0
 11 13  1  0  0  0  0
 12 13  1  0  0  0  0
 13 24  1  0  0  0  0
 13 25  1  0  0  0  0
M  END
> <PUBCHEM_COMPOUND_CID>
23131597

> <PUBCHEM_COMPOUND_CANONICALIZED>
1

> <PUBCHEM_CACTVS_COMPLEXITY>
204

> <PUBCHEM_CACTVS_HBOND_ACCEPTOR>
4

> <PUBCHEM_CACTVS_HBOND_DONOR>
0

> <PUBCHEM_CACTVS_ROTATABLE_BOND>
6

> <PUBCHEM_CACTVS_SUBSKEYS>
AAADccBwOAAAAAAAAAAAAAAAGDAAAAAAAAAAAAAAAAAAAAAAAAAAGgAAAAAACBSggAIACAAABAAIAACQCAAAAAAAAAAAAAEAAAAAAAQIAAACAAABIAAAAAAAAAAAAAAAAAAAAAAAAAAAAAAAAAAAAAAAAA==

> <PUBCHEM_IUPAC_OPENEYE_NAME>
dicyclopropyl propanedioate

> <PUBCHEM_IUPAC_CAS_NAME>
propanedioic acid dicyclopropyl ester

> <PUBCHEM_IUPAC_NAME_MARKUP>
dicyclopropyl propanedioate

> <PUBCHEM_IUPAC_NAME>
dicyclopropyl propanedioate

> <PUBCHEM_IUPAC_SYSTEMATIC_NAME>
dicyclopropyl propanedioate

> <PUBCHEM_IUPAC_TRADITIONAL_NAME>
malonic acid dicyclopropyl ester

> <PUBCHEM_IUPAC_INCHI>
InChI=1S/C9H12O4/c10-8(12-6-1-2-6)5-9(11)13-7-3-4-7/h6-7H,1-5H2

> <PUBCHEM_IUPAC_INCHIKEY>
RVMKMODIXBETKL-UHFFFAOYSA-N

> <PUBCHEM_XLOGP3_AA>
1.2

> <PUBCHEM_EXACT_MASS>
184.07355886

> <PUBCHEM_MOLECULAR_FORMULA>
C9H12O4

> <PUBCHEM_MOLECULAR_WEIGHT>
184.19

> <PUBCHEM_OPENEYE_CAN_SMILES>
C1CC1OC(=O)CC(=O)OC2CC2

> <PUBCHEM_OPENEYE_ISO_SMILES>
C1CC1OC(=O)CC(=O)OC2CC2

> <PUBCHEM_CACTVS_TPSA>
52.6

> <PUBCHEM_MONOISOTOPIC_WEIGHT>
184.07355886

> <PUBCHEM_TOTAL_CHARGE>
0

> <PUBCHEM_HEAVY_ATOM_COUNT>
13

> <PUBCHEM_ATOM_DEF_STEREO_COUNT>
0

> <PUBCHEM_ATOM_UDEF_STEREO_COUNT>
0

> <PUBCHEM_BOND_DEF_STEREO_COUNT>
0

> <PUBCHEM_BOND_UDEF_STEREO_COUNT>
0

> <PUBCHEM_ISOTOPIC_ATOM_COUNT>
0

> <PUBCHEM_COMPONENT_COUNT>
1

> <PUBCHEM_CACTVS_TAUTO_COUNT>
-1

> <PUBCHEM_COORDINATE_TYPE>
1
5
255

$$$$
