 
  -OEChem-10192104272D

 29 29  0     0  0  0  0  0  0999 V2000
    7.1962    1.5000    0.0000 O   0  5  0  0  0  0  0  0  0  0  0  0
    6.3301    0.0000    0.0000 O   0  0  0  0  0  0  0  0  0  0  0  0
    2.8660   -3.0000    0.0000 O   0  5  0  0  0  0  0  0  0  0  0  0
    2.0000   -1.5000    0.0000 O   0  0  0  0  0  0  0  0  0  0  0  0
    2.8660   -2.0000    0.0000 N   0  3  0  0  0  0  0  0  0  0  0  0
    4.5981   -0.0000    0.0000 C   0  0  0  0  0  0  0  0  0  0  0  0
    3.7320   -0.5000    0.0000 C   0  0  0  0  0  0  0  0  0  0  0  0
    4.5981    1.0000    0.0000 C   0  0  0  0  0  0  0  0  0  0  0  0
    3.7320   -1.5000    0.0000 C   0  0  0  0  0  0  0  0  0  0  0  0
    5.4641    1.5000    0.0000 C   0  0  0  0  0  0  0  0  0  0  0  0
    5.4641    2.5000    0.0000 C   0  0  0  0  0  0  0  0  0  0  0  0
    5.4641   -0.5000    0.0000 C   0  0  0  0  0  0  0  0  0  0  0  0
    2.8660   -0.0000    0.0000 C   0  0  0  0  0  0  0  0  0  0  0  0
    4.5981   -2.0000    0.0000 C   0  0  0  0  0  0  0  0  0  0  0  0
    5.4641   -1.5000    0.0000 C   0  0  0  0  0  0  0  0  0  0  0  0
    6.3301    3.0000    0.0000 C   0  0  0  0  0  0  0  0  0  0  0  0
    6.3301    1.0000    0.0000 C   0  0  0  0  0  0  0  0  0  0  0  0
    4.0611    1.3100    0.0000 H   0  0  0  0  0  0  0  0  0  0  0  0
    5.2520    3.0826    0.0000 H   0  0  0  0  0  0  0  0  0  0  0  0
    4.8535    2.3923    0.0000 H   0  0  0  0  0  0  0  0  0  0  0  0
    6.0010   -0.1900    0.0000 H   0  0  0  0  0  0  0  0  0  0  0  0
    3.1760    0.5369    0.0000 H   0  0  0  0  0  0  0  0  0  0  0  0
    2.3291    0.3100    0.0000 H   0  0  0  0  0  0  0  0  0  0  0  0
    2.5560   -0.5369    0.0000 H   0  0  0  0  0  0  0  0  0  0  0  0
    4.5981   -2.6200    0.0000 H   0  0  0  0  0  0  0  0  0  0  0  0
    6.0010   -1.8100    0.0000 H   0  0  0  0  0  0  0  0  0  0  0  0
    6.6401    2.4631    0.0000 H   0  0  0  0  0  0  0  0  0  0  0  0
    6.8671    3.3100    0.0000 H   0  0  0  0  0  0  0  0  0  0  0  0
    6.0201    3.5369    0.0000 H   0  0  0  0  0  0  0  0  0  0  0  0
  1 17  1  0  0  0  0
  2 17  2  0  0  0  0
  3  5  1  0  0  0  0
  4  5  2  0  0  0  0
  5  9  1  0  0  0  0
  6  7  2  0  0  0  0
  6  8  1  0  0  0  0
  6 12  1  0  0  0  0
  7  9  1  0  0  0  0
  7 13  1  0  0  0  0
  8 10  2  0  0  0  0
  8 18  1  0  0  0  0
  9 14  2  0  0  0  0
 10 11  1  0  0  0  0
 10 17  1  0  0  0  0
 11 16  1  0  0  0  0
 11 19  1  0  0  0  0
 11 20  1  0  0  0  0
 12 15  2  0  0  0  0
 12 21  1  0  0  0  0
 13 22  1  0  0  0  0
 13 23  1  0  0  0  0
 13 24  1  0  0  0  0
 14 15  1  0  0  0  0
 14 25  1  0  0  0  0
 15 26  1  0  0  0  0
 16 27  1  0  0  0  0
 16 28  1  0  0  0  0
 16 29  1  0  0  0  0
M  CHG  3   1  -1   3  -1   5   1
M  END
> <PUBCHEM_COMPOUND_CID>
87209150

> <PUBCHEM_COMPOUND_CANONICALIZED>
1

> <PUBCHEM_CACTVS_COMPLEXITY>
326

> <PUBCHEM_CACTVS_HBOND_ACCEPTOR>
4

> <PUBCHEM_CACTVS_HBOND_DONOR>
0

> <PUBCHEM_CACTVS_ROTATABLE_BOND>
2

> <PUBCHEM_CACTVS_SUBSKEYS>
AAADccByOAAAAAAAAAAAAAAAAAAAAAAAAAAwAAAAAAAAAAABAAAAHgAEAAAADAiBmAAyyIAQQACJAiTSSwCCAAAgAgAoiAEAZMoIJDKAkZGAMABkgAAIyYcQgIAOgAAAQAASAAAAAACAACQAAAAAAAAAAA==

> <PUBCHEM_IUPAC_OPENEYE_NAME>
(2Z)-2-[(2-methyl-3-nitro-phenyl)methylene]butanoate

> <PUBCHEM_IUPAC_CAS_NAME>
(2Z)-2-[(2-methyl-3-nitrophenyl)methylidene]butanoate

> <PUBCHEM_IUPAC_NAME_MARKUP>
(2<I>Z</I>)-2-[(2-methyl-3-nitrophenyl)methylidene]butanoate

> <PUBCHEM_IUPAC_NAME>
(2Z)-2-[(2-methyl-3-nitrophenyl)methylidene]butanoate

> <PUBCHEM_IUPAC_SYSTEMATIC_NAME>
(2Z)-2-[(2-methyl-3-nitro-phenyl)methylidene]butanoate

> <PUBCHEM_IUPAC_TRADITIONAL_NAME>
(Z)-2-ethyl-3-(2-methyl-3-nitro-phenyl)acrylate

> <PUBCHEM_IUPAC_INCHI>
InChI=1S/C12H13NO4/c1-3-9(12(14)15)7-10-5-4-6-11(8(10)2)13(16)17/h4-7H,3H2,1-2H3,(H,14,15)/p-1/b9-7-

> <PUBCHEM_IUPAC_INCHIKEY>
KJQMWLJVZKHCHJ-CLFYSBASSA-M

> <PUBCHEM_XLOGP3>
3.9

> <PUBCHEM_EXACT_MASS>
234.07663286

> <PUBCHEM_MOLECULAR_FORMULA>
C12H12NO4-

> <PUBCHEM_MOLECULAR_WEIGHT>
234.23

> <PUBCHEM_OPENEYE_CAN_SMILES>
CCC(=CC1=C(C(=CC=C1)[N+](=O)[O-])C)C(=O)[O-]

> <PUBCHEM_OPENEYE_ISO_SMILES>
CC/C(=C/C1=C(C(=CC=C1)[N+](=O)[O-])C)/C(=O)[O-]

> <PUBCHEM_CACTVS_TPSA>
86

> <PUBCHEM_MONOISOTOPIC_WEIGHT>
234.07663286

> <PUBCHEM_TOTAL_CHARGE>
-1

> <PUBCHEM_HEAVY_ATOM_COUNT>
17

> <PUBCHEM_ATOM_DEF_STEREO_COUNT>
0

> <PUBCHEM_ATOM_UDEF_STEREO_COUNT>
0

> <PUBCHEM_BOND_DEF_STEREO_COUNT>
1

> <PUBCHEM_BOND_UDEF_STEREO_COUNT>
0

> <PUBCHEM_ISOTOPIC_ATOM_COUNT>
0

> <PUBCHEM_COMPONENT_COUNT>
1

> <PUBCHEM_CACTVS_TAUTO_COUNT>
-1

> <PUBCHEM_COORDINATE_TYPE>
1
5
255

> <PUBCHEM_BONDANNOTATIONS>
12  15  8
14  15  8
6  12  8
6  7  8
7  9  8
9  14  8

$$$$
