 
  -OEChem-10192103492D

103109  0     1  0  0  0  0  0999 V2000
   11.2303    1.7904    0.0000 O   0  0  0  0  0  0  0  0  0  0  0  0
    9.4651   -3.4132    0.0000 O   0  0  0  0  0  0  0  0  0  0  0  0
    8.6654    6.1914    0.0000 O   0  0  0  0  0  0  0  0  0  0  0  0
    7.7331   -3.4132    0.0000 O   0  0  0  0  0  0  0  0  0  0  0  0
    9.4651   -5.4132    0.0000 O   0  0  0  0  0  0  0  0  0  0  0  0
    7.0170    6.7232    0.0000 O   0  0  0  0  0  0  0  0  0  0  0  0
    7.7331   -6.4132    0.0000 O   0  0  0  0  0  0  0  0  0  0  0  0
    6.0010   -5.4132    0.0000 O   0  0  0  0  0  0  0  0  0  0  0  0
    5.1350   -3.9132    0.0000 O   0  0  0  0  0  0  0  0  0  0  0  0
    4.2690   -6.4132    0.0000 O   0  0  0  0  0  0  0  0  0  0  0  0
    2.5369   -5.4132    0.0000 O   0  0  0  0  0  0  0  0  0  0  0  0
    2.5369   -3.4132    0.0000 O   0  0  0  0  0  0  0  0  0  0  0  0
    5.1350   -1.9132    0.0000 O   0  0  0  0  0  0  0  0  0  0  0  0
   10.3623    2.2870    0.0000 C   0  0  1  0  0  0  0  0  0  0  0  0
   10.3662    1.2870    0.0000 C   0  0  1  0  0  0  0  0  0  0  0  0
    9.5021    0.7837    0.0000 C   0  0  1  0  0  0  0  0  0  0  0  0
    9.4944    2.7837    0.0000 C   0  0  2  0  0  0  0  0  0  0  0  0
    9.4901   -0.2579    0.0000 C   0  0  2  0  0  0  0  0  0  0  0  0
   10.3901   -0.7822    0.0000 C   0  0  1  0  0  0  0  0  0  0  0  0
    8.6342    1.2804    0.0000 C   0  0  0  0  0  0  0  0  0  0  0  0
    8.6303    2.2804    0.0000 C   0  0  0  0  0  0  0  0  0  0  0  0
    9.6999    3.7563    0.0000 C   0  0  2  0  0  0  0  0  0  0  0  0
   11.2781    0.7837    0.0000 C   0  0  0  0  0  0  0  0  0  0  0  0
   11.0968    2.9570    0.0000 C   0  0  0  0  0  0  0  0  0  0  0  0
   11.2902   -0.2579    0.0000 C   0  0  0  0  0  0  0  0  0  0  0  0
   10.6882    3.8632    0.0000 C   0  0  0  0  0  0  0  0  0  0  0  0
    8.5402   -0.7822    0.0000 C   0  0  0  0  0  0  0  0  0  0  0  0
   10.4027   -1.8671    0.0000 C   0  0  0  0  0  0  0  0  0  0  0  0
    8.6264    3.2803    0.0000 C   0  0  0  0  0  0  0  0  0  0  0  0
    8.6260    0.2455    0.0000 C   0  0  0  0  0  0  0  0  0  0  0  0
    8.5276   -1.8671    0.0000 C   0  0  0  0  0  0  0  0  0  0  0  0
    9.4651   -2.4132    0.0000 C   0  0  2  0  0  0  0  0  0  0  0  0
    9.0292    4.4980    0.0000 C   0  0  0  0  0  0  0  0  0  0  0  0
    8.0514    4.2880    0.0000 C   0  0  0  0  0  0  0  0  0  0  0  0
    9.3361    5.4497    0.0000 C   0  0  0  0  0  0  0  0  0  0  0  0
    8.5991   -3.9132    0.0000 C   0  0  2  0  0  0  0  0  0  0  0  0
    7.3807    5.0298    0.0000 C   0  0  0  0  0  0  0  0  0  0  0  0
    8.5991   -4.9132    0.0000 C   0  0  1  0  0  0  0  0  0  0  0  0
    7.6877    5.9815    0.0000 C   0  0  0  0  0  0  0  0  0  0  0  0
    7.7331   -5.4132    0.0000 C   0  0  1  0  0  0  0  0  0  0  0  0
    6.8671   -3.9132    0.0000 C   0  0  2  0  0  0  0  0  0  0  0  0
    6.8671   -4.9132    0.0000 C   0  0  2  0  0  0  0  0  0  0  0  0
    6.0010   -3.4132    0.0000 C   0  0  0  0  0  0  0  0  0  0  0  0
    5.1350   -4.9132    0.0000 C   0  0  2  0  0  0  0  0  0  0  0  0
    4.2690   -5.4132    0.0000 C   0  0  1  0  0  0  0  0  0  0  0  0
    3.4030   -4.9132    0.0000 C   0  0  2  0  0  0  0  0  0  0  0  0
    4.2690   -3.4132    0.0000 C   0  0  1  0  0  0  0  0  0  0  0  0
    3.4030   -3.9132    0.0000 C   0  0  1  0  0  0  0  0  0  0  0  0
    4.2690   -2.4132    0.0000 C   0  0  0  0  0  0  0  0  0  0  0  0
   11.0974    1.7205    0.0000 H   0  0  0  0  0  0  0  0  0  0  0  0
   10.2366    0.3559    0.0000 H   0  0  0  0  0  0  0  0  0  0  0  0
   11.1295   -1.2015    0.0000 H   0  0  0  0  0  0  0  0  0  0  0  0
    8.0232    1.3857    0.0000 H   0  0  0  0  0  0  0  0  0  0  0  0
    8.4244    0.6969    0.0000 H   0  0  0  0  0  0  0  0  0  0  0  0
    8.4160    2.8621    0.0000 H   0  0  0  0  0  0  0  0  0  0  0  0
    8.0201    2.1703    0.0000 H   0  0  0  0  0  0  0  0  0  0  0  0
    9.9206    4.3357    0.0000 H   0  0  0  0  0  0  0  0  0  0  0  0
   11.8902    0.6847    0.0000 H   0  0  0  0  0  0  0  0  0  0  0  0
   11.4804    1.3698    0.0000 H   0  0  0  0  0  0  0  0  0  0  0  0
   11.4642    2.4575    0.0000 H   0  0  0  0  0  0  0  0  0  0  0  0
   11.6321    3.2698    0.0000 H   0  0  0  0  0  0  0  0  0  0  0  0
   11.5060   -0.8391    0.0000 H   0  0  0  0  0  0  0  0  0  0  0  0
   11.8998   -0.1447    0.0000 H   0  0  0  0  0  0  0  0  0  0  0  0
   11.2770    4.0572    0.0000 H   0  0  0  0  0  0  0  0  0  0  0  0
   10.5571    4.4692    0.0000 H   0  0  0  0  0  0  0  0  0  0  0  0
    8.3379   -0.1961    0.0000 H   0  0  0  0  0  0  0  0  0  0  0  0
    7.9281   -0.8812    0.0000 H   0  0  0  0  0  0  0  0  0  0  0  0
   10.6185   -2.4483    0.0000 H   0  0  0  0  0  0  0  0  0  0  0  0
   11.0123   -1.7539    0.0000 H   0  0  0  0  0  0  0  0  0  0  0  0
    8.9344    3.8185    0.0000 H   0  0  0  0  0  0  0  0  0  0  0  0
    8.0883    3.5883    0.0000 H   0  0  0  0  0  0  0  0  0  0  0  0
    8.3185    2.7422    0.0000 H   0  0  0  0  0  0  0  0  0  0  0  0
    8.9380    0.7812    0.0000 H   0  0  0  0  0  0  0  0  0  0  0  0
    8.0902    0.5575    0.0000 H   0  0  0  0  0  0  0  0  0  0  0  0
    8.3139   -0.2903    0.0000 H   0  0  0  0  0  0  0  0  0  0  0  0
    7.9180   -1.7539    0.0000 H   0  0  0  0  0  0  0  0  0  0  0  0
    8.3118   -2.4483    0.0000 H   0  0  0  0  0  0  0  0  0  0  0  0
   10.0027   -2.7222    0.0000 H   0  0  0  0  0  0  0  0  0  0  0  0
   11.7660    2.1024    0.0000 H   0  0  0  0  0  0  0  0  0  0  0  0
    7.8611    3.6980    0.0000 H   0  0  0  0  0  0  0  0  0  0  0  0
    9.9423    5.5799    0.0000 H   0  0  0  0  0  0  0  0  0  0  0  0
    8.5991   -3.2932    0.0000 H   0  0  0  0  0  0  0  0  0  0  0  0
    6.7746    4.8996    0.0000 H   0  0  0  0  0  0  0  0  0  0  0  0
    8.5991   -5.5332    0.0000 H   0  0  0  0  0  0  0  0  0  0  0  0
    7.1962   -5.7232    0.0000 H   0  0  0  0  0  0  0  0  0  0  0  0
    6.8671   -3.2932    0.0000 H   0  0  0  0  0  0  0  0  0  0  0  0
    6.3301   -4.6032    0.0000 H   0  0  0  0  0  0  0  0  0  0  0  0
   10.0021   -5.1032    0.0000 H   0  0  0  0  0  0  0  0  0  0  0  0
    6.3110   -2.8763    0.0000 H   0  0  0  0  0  0  0  0  0  0  0  0
    5.4641   -3.1032    0.0000 H   0  0  0  0  0  0  0  0  0  0  0  0
    5.6910   -3.9501    0.0000 H   0  0  0  0  0  0  0  0  0  0  0  0
    8.2700   -6.7232    0.0000 H   0  0  0  0  0  0  0  0  0  0  0  0
    5.1350   -5.5332    0.0000 H   0  0  0  0  0  0  0  0  0  0  0  0
    3.7320   -5.7232    0.0000 H   0  0  0  0  0  0  0  0  0  0  0  0
    2.8660   -4.6032    0.0000 H   0  0  0  0  0  0  0  0  0  0  0  0
    4.8059   -3.1032    0.0000 H   0  0  0  0  0  0  0  0  0  0  0  0
    3.4030   -3.2932    0.0000 H   0  0  0  0  0  0  0  0  0  0  0  0
    3.7320   -6.7232    0.0000 H   0  0  0  0  0  0  0  0  0  0  0  0
    4.0569   -1.8306    0.0000 H   0  0  0  0  0  0  0  0  0  0  0  0
    3.6584   -2.5208    0.0000 H   0  0  0  0  0  0  0  0  0  0  0  0
    2.0000   -5.1032    0.0000 H   0  0  0  0  0  0  0  0  0  0  0  0
    2.5369   -2.7932    0.0000 H   0  0  0  0  0  0  0  0  0  0  0  0
    5.1350   -1.2932    0.0000 H   0  0  0  0  0  0  0  0  0  0  0  0
 14  1  1  1  0  0  0
  1 79  1  0  0  0  0
 32  2  1  1  0  0  0
 36  2  1  1  0  0  0
  3 35  1  0  0  0  0
  3 39  1  0  0  0  0
  4 36  1  0  0  0  0
  4 41  1  0  0  0  0
 38  5  1  6  0  0  0
  5 88  1  0  0  0  0
  6 39  2  0  0  0  0
 40  7  1  6  0  0  0
  7 92  1  0  0  0  0
 42  8  1  1  0  0  0
 44  8  1  1  0  0  0
  9 44  1  0  0  0  0
  9 47  1  0  0  0  0
 45 10  1  6  0  0  0
 10 98  1  0  0  0  0
 46 11  1  1  0  0  0
 11101  1  0  0  0  0
 48 12  1  6  0  0  0
 12102  1  0  0  0  0
 13 49  1  0  0  0  0
 13103  1  0  0  0  0
 14 15  1  0  0  0  0
 14 17  1  0  0  0  0
 14 24  1  0  0  0  0
 15 16  1  0  0  0  0
 15 23  1  0  0  0  0
 15 50  1  1  0  0  0
 16 18  1  0  0  0  0
 16 20  1  0  0  0  0
 16 51  1  6  0  0  0
 17 21  1  0  0  0  0
 17 22  1  0  0  0  0
 17 29  1  1  0  0  0
 18 19  1  0  0  0  0
 18 27  1  0  0  0  0
 18 30  1  1  0  0  0
 19 25  1  0  0  0  0
 19 28  1  0  0  0  0
 19 52  1  6  0  0  0
 20 21  1  0  0  0  0
 20 53  1  0  0  0  0
 20 54  1  0  0  0  0
 21 55  1  0  0  0  0
 21 56  1  0  0  0  0
 22 26  1  0  0  0  0
 22 33  1  1  0  0  0
 22 57  1  0  0  0  0
 23 25  1  0  0  0  0
 23 58  1  0  0  0  0
 23 59  1  0  0  0  0
 24 26  1  0  0  0  0
 24 60  1  0  0  0  0
 24 61  1  0  0  0  0
 25 62  1  0  0  0  0
 25 63  1  0  0  0  0
 26 64  1  0  0  0  0
 26 65  1  0  0  0  0
 27 31  1  0  0  0  0
 27 66  1  0  0  0  0
 27 67  1  0  0  0  0
 28 32  1  0  0  0  0
 28 68  1  0  0  0  0
 28 69  1  0  0  0  0
 29 70  1  0  0  0  0
 29 71  1  0  0  0  0
 29 72  1  0  0  0  0
 30 73  1  0  0  0  0
 30 74  1  0  0  0  0
 30 75  1  0  0  0  0
 31 32  1  0  0  0  0
 31 76  1  0  0  0  0
 31 77  1  0  0  0  0
 32 78  1  0  0  0  0
 33 34  1  0  0  0  0
 33 35  2  0  0  0  0
 34 37  2  0  0  0  0
 34 80  1  0  0  0  0
 35 81  1  0  0  0  0
 36 38  1  0  0  0  0
 36 82  1  0  0  0  0
 37 39  1  0  0  0  0
 37 83  1  0  0  0  0
 38 40  1  0  0  0  0
 38 84  1  0  0  0  0
 40 42  1  0  0  0  0
 40 85  1  0  0  0  0
 41 42  1  0  0  0  0
 41 43  1  6  0  0  0
 41 86  1  0  0  0  0
 42 87  1  0  0  0  0
 43 89  1  0  0  0  0
 43 90  1  0  0  0  0
 43 91  1  0  0  0  0
 44 45  1  0  0  0  0
 44 93  1  0  0  0  0
 45 46  1  0  0  0  0
 45 94  1  0  0  0  0
 46 48  1  0  0  0  0
 46 95  1  0  0  0  0
 47 48  1  0  0  0  0
 47 49  1  1  0  0  0
 47 96  1  0  0  0  0
 48 97  1  0  0  0  0
 49 99  1  0  0  0  0
 49100  1  0  0  0  0
M  END
> <PUBCHEM_COMPOUND_CID>
102069297

> <PUBCHEM_COMPOUND_CANONICALIZED>
1

> <PUBCHEM_CACTVS_COMPLEXITY>
1310

> <PUBCHEM_CACTVS_HBOND_ACCEPTOR>
13

> <PUBCHEM_CACTVS_HBOND_DONOR>
7

> <PUBCHEM_CACTVS_ROTATABLE_BOND>
6

> <PUBCHEM_CACTVS_SUBSKEYS>
AAADcfB8PAAAAAAAAAAAAAAAAAAAAYAAAAA0aMECAAAAAGDAAAAAGgAACAAAD1SwgAMCCAAABgCIAiDSCAAACAAgIAAICAAAAEgZFAIAIQAiUAAFgAAPoYPA4PwPgAAAAAAAAADAAAYAADAAAYAADAAAAA==

> <PUBCHEM_IUPAC_OPENEYE_NAME>
5-[(3S,5S,8R,9S,10S,13R,14S,17R)-3-[(2R,3R,4S,5R,6S)-3,4-dihydroxy-6-methyl-5-[(2S,3R,4S,5S,6R)-3,4,5-trihydroxy-6-(hydroxymethyl)tetrahydropyran-2-yl]oxy-tetrahydropyran-2-yl]oxy-14-hydroxy-10,13-dimethyl-1,2,3,4,5,6,7,8,9,11,12,15,16,17-tetradecahydrocyclopenta[a]phenanthren-17-yl]pyran-2-one

> <PUBCHEM_IUPAC_CAS_NAME>
5-[(3S,5S,8R,9S,10S,13R,14S,17R)-3-[[(2R,3R,4S,5R,6S)-3,4-dihydroxy-6-methyl-5-[[(2S,3R,4S,5S,6R)-3,4,5-trihydroxy-6-(hydroxymethyl)-2-oxanyl]oxy]-2-oxanyl]oxy]-14-hydroxy-10,13-dimethyl-1,2,3,4,5,6,7,8,9,11,12,15,16,17-tetradecahydrocyclopenta[a]phenanthren-17-yl]-2-pyranone

> <PUBCHEM_IUPAC_NAME_MARKUP>
5-[(3<I>S</I>,5<I>S</I>,8<I>R</I>,9<I>S</I>,10<I>S</I>,13<I>R</I>,14<I>S</I>,17<I>R</I>)-3-[(2<I>R</I>,3<I>R</I>,4<I>S</I>,5<I>R</I>,6<I>S</I>)-3,4-dihydroxy-6-methyl-5-[(2<I>S</I>,3<I>R</I>,4<I>S</I>,5<I>S</I>,6<I>R</I>)-3,4,5-trihydroxy-6-(hydroxymethyl)oxan-2-yl]oxyoxan-2-yl]oxy-14-hydroxy-10,13-dimethyl-1,2,3,4,5,6,7,8,9,11,12,15,16,17-tetradecahydrocyclopenta[a]phenanthren-17-yl]pyran-2-one

> <PUBCHEM_IUPAC_NAME>
5-[(3S,5S,8R,9S,10S,13R,14S,17R)-3-[(2R,3R,4S,5R,6S)-3,4-dihydroxy-6-methyl-5-[(2S,3R,4S,5S,6R)-3,4,5-trihydroxy-6-(hydroxymethyl)oxan-2-yl]oxyoxan-2-yl]oxy-14-hydroxy-10,13-dimethyl-1,2,3,4,5,6,7,8,9,11,12,15,16,17-tetradecahydrocyclopenta[a]phenanthren-17-yl]pyran-2-one

> <PUBCHEM_IUPAC_SYSTEMATIC_NAME>
5-[(3S,5S,8R,9S,10S,13R,14S,17R)-3-[(2R,3R,4S,5R,6S)-5-[(2S,3R,4S,5S,6R)-6-(hydroxymethyl)-3,4,5-tris(oxidanyl)oxan-2-yl]oxy-6-methyl-3,4-bis(oxidanyl)oxan-2-yl]oxy-10,13-dimethyl-14-oxidanyl-1,2,3,4,5,6,7,8,9,11,12,15,16,17-tetradecahydrocyclopenta[a]phenanthren-17-yl]pyran-2-one

> <PUBCHEM_IUPAC_TRADITIONAL_NAME>
5-[(3S,5S,8R,9S,10S,13R,14S,17R)-3-[(2R,3R,4S,5R,6S)-3,4-dihydroxy-6-methyl-5-[(2S,3R,4S,5S,6R)-3,4,5-trihydroxy-6-methylol-tetrahydropyran-2-yl]oxy-tetrahydropyran-2-yl]oxy-14-hydroxy-10,13-dimethyl-1,2,3,4,5,6,7,8,9,11,12,15,16,17-tetradecahydrocyclopenta[a]phenanthren-17-yl]pyran-2-one

> <PUBCHEM_IUPAC_INCHI>
InChI=1S/C36H54O13/c1-17-31(49-33-29(42)27(40)26(39)24(15-37)48-33)28(41)30(43)32(46-17)47-20-8-11-34(2)19(14-20)5-6-23-22(34)9-12-35(3)21(10-13-36(23,35)44)18-4-7-25(38)45-16-18/h4,7,16-17,19-24,26-33,37,39-44H,5-6,8-15H2,1-3H3/t17-,19-,20-,21+,22-,23+,24+,26+,27-,28-,29+,30+,31-,32-,33-,34-,35+,36-/m0/s1

> <PUBCHEM_IUPAC_INCHIKEY>
LYASADJFNZVCCK-ZHMYINHMSA-N

> <PUBCHEM_XLOGP3>
1.1

> <PUBCHEM_EXACT_MASS>
694.35644177

> <PUBCHEM_MOLECULAR_FORMULA>
C36H54O13

> <PUBCHEM_MOLECULAR_WEIGHT>
694.8

> <PUBCHEM_OPENEYE_CAN_SMILES>
CC1C(C(C(C(O1)OC2CCC3(C(C2)CCC4C3CCC5(C4(CCC5C6=COC(=O)C=C6)O)C)C)O)O)OC7C(C(C(C(O7)CO)O)O)O

> <PUBCHEM_OPENEYE_ISO_SMILES>
C[C@H]1[C@@H]([C@H]([C@H]([C@@H](O1)O[C@H]2CC[C@]3([C@H](C2)CC[C@@H]4[C@@H]3CC[C@]5([C@@]4(CC[C@@H]5C6=COC(=O)C=C6)O)C)C)O)O)O[C@H]7[C@@H]([C@H]([C@@H]([C@H](O7)CO)O)O)O

> <PUBCHEM_CACTVS_TPSA>
205

> <PUBCHEM_MONOISOTOPIC_WEIGHT>
694.35644177

> <PUBCHEM_TOTAL_CHARGE>
0

> <PUBCHEM_HEAVY_ATOM_COUNT>
49

> <PUBCHEM_ATOM_DEF_STEREO_COUNT>
18

> <PUBCHEM_ATOM_UDEF_STEREO_COUNT>
0

> <PUBCHEM_BOND_DEF_STEREO_COUNT>
0

> <PUBCHEM_BOND_UDEF_STEREO_COUNT>
0

> <PUBCHEM_ISOTOPIC_ATOM_COUNT>
0

> <PUBCHEM_COMPONENT_COUNT>
1

> <PUBCHEM_CACTVS_TAUTO_COUNT>
-1

> <PUBCHEM_COORDINATE_TYPE>
1
5
255

> <PUBCHEM_BONDANNOTATIONS>
14  1  5
45  10  6
46  11  5
48  12  6
15  50  5
16  51  6
17  29  5
18  30  5
19  52  6
32  2  5
36  2  5
22  33  5
3  35  8
3  39  8
33  34  8
33  35  8
34  37  8
37  39  8
41  43  6
47  49  5
38  5  6
40  7  6
42  8  5
44  8  5

$$$$
