 
  -OEChem-10192104052D

 32 33  0     0  0  0  0  0  0999 V2000
    4.8147    2.7775    0.0000 S   0  0  0  0  0  0  0  0  0  0  0  0
    2.8660   -2.9250    0.0000 S   0  0  0  0  0  0  0  0  0  0  0  0
    6.8970    2.6159    0.0000 P   0  0  0  0  0  0  0  0  0  0  0  0
    7.4848    3.4250    0.0000 O   0  0  0  0  0  0  0  0  0  0  0  0
    7.7060    2.0282    0.0000 O   0  0  0  0  0  0  0  0  0  0  0  0
    6.7160    0.8934    0.0000 O   0  0  0  0  0  0  0  0  0  0  0  0
    6.0880    3.2037    0.0000 O   0  0  0  0  0  0  0  0  0  0  0  0
    4.6456    1.1683    0.0000 N   0  0  0  0  0  0  0  0  0  0  0  0
    2.8660    1.0750    0.0000 C   0  0  0  0  0  0  0  0  0  0  0  0
    2.8660    0.0750    0.0000 C   0  0  0  0  0  0  0  0  0  0  0  0
    3.7320    1.5750    0.0000 C   0  0  0  0  0  0  0  0  0  0  0  0
    3.7320   -0.4250    0.0000 C   0  0  0  0  0  0  0  0  0  0  0  0
    2.0000   -0.4250    0.0000 C   0  0  0  0  0  0  0  0  0  0  0  0
    3.8366    2.5696    0.0000 C   0  0  0  0  0  0  0  0  0  0  0  0
    5.3147    1.9114    0.0000 C   0  0  0  0  0  0  0  0  0  0  0  0
    3.7320   -1.4250    0.0000 C   0  0  0  0  0  0  0  0  0  0  0  0
    2.0000   -1.4250    0.0000 C   0  0  0  0  0  0  0  0  0  0  0  0
    2.8660   -1.9250    0.0000 C   0  0  0  0  0  0  0  0  0  0  0  0
    6.3092    1.8069    0.0000 C   0  0  0  0  0  0  0  0  0  0  0  0
    2.0000   -3.4250    0.0000 C   0  0  0  0  0  0  0  0  0  0  0  0
    2.6540    1.6576    0.0000 H   0  0  0  0  0  0  0  0  0  0  0  0
    2.2554    0.9674    0.0000 H   0  0  0  0  0  0  0  0  0  0  0  0
    4.2690   -0.1150    0.0000 H   0  0  0  0  0  0  0  0  0  0  0  0
    1.4631   -0.1150    0.0000 H   0  0  0  0  0  0  0  0  0  0  0  0
    3.3758    2.9844    0.0000 H   0  0  0  0  0  0  0  0  0  0  0  0
    4.2690   -1.7350    0.0000 H   0  0  0  0  0  0  0  0  0  0  0  0
    1.4631   -1.7350    0.0000 H   0  0  0  0  0  0  0  0  0  0  0  0
    1.6900   -2.8880    0.0000 H   0  0  0  0  0  0  0  0  0  0  0  0
    1.4631   -3.7350    0.0000 H   0  0  0  0  0  0  0  0  0  0  0  0
    2.3100   -3.9619    0.0000 H   0  0  0  0  0  0  0  0  0  0  0  0
    8.1014    3.3602    0.0000 H   0  0  0  0  0  0  0  0  0  0  0  0
    8.2724    2.2803    0.0000 H   0  0  0  0  0  0  0  0  0  0  0  0
  1 14  1  0  0  0  0
  1 15  1  0  0  0  0
  2 18  1  0  0  0  0
  2 20  1  0  0  0  0
  3  4  1  0  0  0  0
  3  5  1  0  0  0  0
  3  7  2  0  0  0  0
  3 19  1  0  0  0  0
  4 31  1  0  0  0  0
  5 32  1  0  0  0  0
  6 19  2  0  0  0  0
  8 11  1  0  0  0  0
  8 15  2  0  0  0  0
  9 10  1  0  0  0  0
  9 11  1  0  0  0  0
  9 21  1  0  0  0  0
  9 22  1  0  0  0  0
 10 12  2  0  0  0  0
 10 13  1  0  0  0  0
 11 14  2  0  0  0  0
 12 16  1  0  0  0  0
 12 23  1  0  0  0  0
 13 17  2  0  0  0  0
 13 24  1  0  0  0  0
 14 25  1  0  0  0  0
 15 19  1  0  0  0  0
 16 18  2  0  0  0  0
 16 26  1  0  0  0  0
 17 18  1  0  0  0  0
 17 27  1  0  0  0  0
 20 28  1  0  0  0  0
 20 29  1  0  0  0  0
 20 30  1  0  0  0  0
M  END
> <PUBCHEM_COMPOUND_CID>
59256056

> <PUBCHEM_COMPOUND_CANONICALIZED>
1

> <PUBCHEM_CACTVS_COMPLEXITY>
395

> <PUBCHEM_CACTVS_HBOND_ACCEPTOR>
7

> <PUBCHEM_CACTVS_HBOND_DONOR>
2

> <PUBCHEM_CACTVS_ROTATABLE_BOND>
5

> <PUBCHEM_CACTVS_SUBSKEYS>
AAADccByOAJgAAAAAAAAAAAAAAAAAWAAAAAwAAAAAAAAAAABwAAAHgwACCAADAiF3gCygZIIEBisQyRyRIAC8KBjCjgIiBywIIgIICKgkTGEIAAggACoiAcQgIAOEAAAAAAAAAAgAAAAAAAAAAAAAAAAAA==

> <PUBCHEM_IUPAC_OPENEYE_NAME>
[4-[(4-methylsulfanylphenyl)methyl]thiazole-2-carbonyl]phosphonic acid

> <PUBCHEM_IUPAC_CAS_NAME>
[[4-[[4-(methylthio)phenyl]methyl]-2-thiazolyl]-oxomethyl]phosphonic acid

> <PUBCHEM_IUPAC_NAME_MARKUP>
[4-[(4-methylsulfanylphenyl)methyl]-1,3-thiazole-2-carbonyl]phosphonic acid

> <PUBCHEM_IUPAC_NAME>
[4-[(4-methylsulfanylphenyl)methyl]-1,3-thiazole-2-carbonyl]phosphonic acid

> <PUBCHEM_IUPAC_SYSTEMATIC_NAME>
[4-[(4-methylsulfanylphenyl)methyl]-1,3-thiazol-2-yl]carbonylphosphonic acid

> <PUBCHEM_IUPAC_TRADITIONAL_NAME>
[4-[4-(methylthio)benzyl]thiazole-2-carbonyl]phosphonic acid

> <PUBCHEM_IUPAC_INCHI>
InChI=1S/C12H12NO4PS2/c1-19-10-4-2-8(3-5-10)6-9-7-20-11(13-9)12(14)18(15,16)17/h2-5,7H,6H2,1H3,(H2,15,16,17)

> <PUBCHEM_IUPAC_INCHIKEY>
DLVDLAJCGACBSQ-UHFFFAOYSA-N

> <PUBCHEM_XLOGP3_AA>
1.7

> <PUBCHEM_EXACT_MASS>
328.99453721

> <PUBCHEM_MOLECULAR_FORMULA>
C12H12NO4PS2

> <PUBCHEM_MOLECULAR_WEIGHT>
329.3

> <PUBCHEM_OPENEYE_CAN_SMILES>
CSC1=CC=C(C=C1)CC2=CSC(=N2)C(=O)P(=O)(O)O

> <PUBCHEM_OPENEYE_ISO_SMILES>
CSC1=CC=C(C=C1)CC2=CSC(=N2)C(=O)P(=O)(O)O

> <PUBCHEM_CACTVS_TPSA>
141

> <PUBCHEM_MONOISOTOPIC_WEIGHT>
328.99453721

> <PUBCHEM_TOTAL_CHARGE>
0

> <PUBCHEM_HEAVY_ATOM_COUNT>
20

> <PUBCHEM_ATOM_DEF_STEREO_COUNT>
0

> <PUBCHEM_ATOM_UDEF_STEREO_COUNT>
0

> <PUBCHEM_BOND_DEF_STEREO_COUNT>
0

> <PUBCHEM_BOND_UDEF_STEREO_COUNT>
0

> <PUBCHEM_ISOTOPIC_ATOM_COUNT>
0

> <PUBCHEM_COMPONENT_COUNT>
1

> <PUBCHEM_CACTVS_TAUTO_COUNT>
-1

> <PUBCHEM_COORDINATE_TYPE>
1
5
255

> <PUBCHEM_BONDANNOTATIONS>
1  14  8
1  15  8
10  12  8
10  13  8
11  14  8
12  16  8
13  17  8
16  18  8
17  18  8
8  11  8
8  15  8

$$$$
