 
  -OEChem-10192104282D

 78 80  0     1  0  0  0  0  0999 V2000
    7.6530    4.9902    0.0000 O   0  0  0  0  0  0  0  0  0  0  0  0
    5.4641   -5.1167    0.0000 O   0  0  0  0  0  0  0  0  0  0  0  0
    2.0000   -5.1167    0.0000 O   0  0  0  0  0  0  0  0  0  0  0  0
   10.5885    5.6088    0.0000 O   0  0  0  0  0  0  0  0  0  0  0  0
   10.9457    3.9140    0.0000 O   0  0  0  0  0  0  0  0  0  0  0  0
    5.4641    0.8833    0.0000 C   0  0  2  0  0  0  0  0  0  0  0  0
    6.4103    1.1881    0.0000 C   0  0  2  0  0  0  0  0  0  0  0  0
    5.4641   -0.1167    0.0000 C   0  0  1  0  0  0  0  0  0  0  0  0
    6.9939    0.3833    0.0000 C   0  0  0  0  0  0  0  0  0  0  0  0
    6.4103   -0.4214    0.0000 C   0  0  0  0  0  0  0  0  0  0  0  0
    4.5981    1.3833    0.0000 C   0  0  0  0  0  0  0  0  0  0  0  0
    6.7210    2.1386    0.0000 C   0  0  0  0  0  0  0  0  0  0  0  0
    4.5981   -0.6167    0.0000 C   0  0  0  0  0  0  0  0  0  0  0  0
    5.4641    1.8833    0.0000 C   0  0  0  0  0  0  0  0  0  0  0  0
    3.7320    0.8833    0.0000 C   0  0  0  0  0  0  0  0  0  0  0  0
    3.7320   -0.1167    0.0000 C   0  0  0  0  0  0  0  0  0  0  0  0
    7.6715    1.8279    0.0000 C   0  0  0  0  0  0  0  0  0  0  0  0
    5.7705    2.4492    0.0000 C   0  0  0  0  0  0  0  0  0  0  0  0
    7.0316    3.0891    0.0000 C   0  0  0  0  0  0  0  0  0  0  0  0
    4.5981   -1.6167    0.0000 C   0  0  0  0  0  0  0  0  0  0  0  0
    8.0102    3.2953    0.0000 C   0  0  0  0  0  0  0  0  0  0  0  0
    3.7320   -2.1167    0.0000 C   0  0  0  0  0  0  0  0  0  0  0  0
    8.3208    4.2458    0.0000 C   0  0  1  0  0  0  0  0  0  0  0  0
    3.7320   -3.1167    0.0000 C   0  0  0  0  0  0  0  0  0  0  0  0
    9.2993    4.4521    0.0000 C   0  0  0  0  0  0  0  0  0  0  0  0
    4.5981   -3.6167    0.0000 C   0  0  0  0  0  0  0  0  0  0  0  0
    2.8660   -3.6167    0.0000 C   0  0  0  0  0  0  0  0  0  0  0  0
    4.5981   -4.6167    0.0000 C   0  0  2  0  0  0  0  0  0  0  0  0
    9.0931    5.4306    0.0000 C   0  0  0  0  0  0  0  0  0  0  0  0
    9.5055    3.4736    0.0000 C   0  0  0  0  0  0  0  0  0  0  0  0
    2.8660   -4.6167    0.0000 C   0  0  2  0  0  0  0  0  0  0  0  0
    3.7320   -5.1167    0.0000 C   0  0  0  0  0  0  0  0  0  0  0  0
   10.2778    4.6583    0.0000 C   0  0  0  0  0  0  0  0  0  0  0  0
    2.0000   -3.1167    0.0000 C   0  0  0  0  0  0  0  0  0  0  0  0
    7.2500    1.3200    0.0000 H   0  0  0  0  0  0  0  0  0  0  0  0
    5.5540   -0.9619    0.0000 H   0  0  0  0  0  0  0  0  0  0  0  0
    7.4548   -0.0314    0.0000 H   0  0  0  0  0  0  0  0  0  0  0  0
    7.4548    0.7981    0.0000 H   0  0  0  0  0  0  0  0  0  0  0  0
    6.1593   -0.9883    0.0000 H   0  0  0  0  0  0  0  0  0  0  0  0
    6.9477   -0.7306    0.0000 H   0  0  0  0  0  0  0  0  0  0  0  0
    4.9966    1.8583    0.0000 H   0  0  0  0  0  0  0  0  0  0  0  0
    4.1996    1.8583    0.0000 H   0  0  0  0  0  0  0  0  0  0  0  0
    6.0841    1.8833    0.0000 H   0  0  0  0  0  0  0  0  0  0  0  0
    5.4641    2.5033    0.0000 H   0  0  0  0  0  0  0  0  0  0  0  0
    4.8441    1.8833    0.0000 H   0  0  0  0  0  0  0  0  0  0  0  0
    3.5200    1.4660    0.0000 H   0  0  0  0  0  0  0  0  0  0  0  0
    3.1215    0.7757    0.0000 H   0  0  0  0  0  0  0  0  0  0  0  0
    3.1215   -0.0090    0.0000 H   0  0  0  0  0  0  0  0  0  0  0  0
    3.5200   -0.6993    0.0000 H   0  0  0  0  0  0  0  0  0  0  0  0
    7.4789    1.2386    0.0000 H   0  0  0  0  0  0  0  0  0  0  0  0
    8.2608    1.6353    0.0000 H   0  0  0  0  0  0  0  0  0  0  0  0
    7.8641    2.4172    0.0000 H   0  0  0  0  0  0  0  0  0  0  0  0
    5.9631    3.0386    0.0000 H   0  0  0  0  0  0  0  0  0  0  0  0
    5.1811    2.6419    0.0000 H   0  0  0  0  0  0  0  0  0  0  0  0
    5.5778    1.8599    0.0000 H   0  0  0  0  0  0  0  0  0  0  0  0
    6.6176    3.5506    0.0000 H   0  0  0  0  0  0  0  0  0  0  0  0
    5.1350   -1.9267    0.0000 H   0  0  0  0  0  0  0  0  0  0  0  0
    8.4242    2.8339    0.0000 H   0  0  0  0  0  0  0  0  0  0  0  0
    3.1951   -1.8067    0.0000 H   0  0  0  0  0  0  0  0  0  0  0  0
    7.7141    4.1180    0.0000 H   0  0  0  0  0  0  0  0  0  0  0  0
    5.2087   -3.7243    0.0000 H   0  0  0  0  0  0  0  0  0  0  0  0
    4.8101   -3.0340    0.0000 H   0  0  0  0  0  0  0  0  0  0  0  0
    4.5981   -5.2367    0.0000 H   0  0  0  0  0  0  0  0  0  0  0  0
    7.8456    5.5795    0.0000 H   0  0  0  0  0  0  0  0  0  0  0  0
    9.6998    5.5584    0.0000 H   0  0  0  0  0  0  0  0  0  0  0  0
    8.9652    6.0372    0.0000 H   0  0  0  0  0  0  0  0  0  0  0  0
    8.4864    5.3027    0.0000 H   0  0  0  0  0  0  0  0  0  0  0  0
    8.8989    3.3457    0.0000 H   0  0  0  0  0  0  0  0  0  0  0  0
    9.6334    2.8669    0.0000 H   0  0  0  0  0  0  0  0  0  0  0  0
   10.1122    3.6014    0.0000 H   0  0  0  0  0  0  0  0  0  0  0  0
    2.8660   -5.2367    0.0000 H   0  0  0  0  0  0  0  0  0  0  0  0
    3.3335   -5.5916    0.0000 H   0  0  0  0  0  0  0  0  0  0  0  0
    4.1306   -5.5916    0.0000 H   0  0  0  0  0  0  0  0  0  0  0  0
    2.0000   -2.4967    0.0000 H   0  0  0  0  0  0  0  0  0  0  0  0
    1.4631   -3.4267    0.0000 H   0  0  0  0  0  0  0  0  0  0  0  0
    5.4641   -5.7367    0.0000 H   0  0  0  0  0  0  0  0  0  0  0  0
    2.0000   -5.7367    0.0000 H   0  0  0  0  0  0  0  0  0  0  0  0
   11.1952    5.7367    0.0000 H   0  0  0  0  0  0  0  0  0  0  0  0
 23  1  1  6  0  0  0
  1 64  1  0  0  0  0
 28  2  1  1  0  0  0
  2 76  1  0  0  0  0
 31  3  1  6  0  0  0
  3 77  1  0  0  0  0
  4 33  1  0  0  0  0
  4 78  1  0  0  0  0
  5 33  2  0  0  0  0
  6  7  1  0  0  0  0
  6  8  1  0  0  0  0
  6 11  1  0  0  0  0
  6 14  1  1  0  0  0
  7  9  1  0  0  0  0
  7 12  1  0  0  0  0
  7 35  1  6  0  0  0
  8 10  1  0  0  0  0
  8 13  1  0  0  0  0
  8 36  1  6  0  0  0
  9 10  1  0  0  0  0
  9 37  1  0  0  0  0
  9 38  1  0  0  0  0
 10 39  1  0  0  0  0
 10 40  1  0  0  0  0
 11 15  1  0  0  0  0
 11 41  1  0  0  0  0
 11 42  1  0  0  0  0
 12 17  1  0  0  0  0
 12 18  1  0  0  0  0
 12 19  1  0  0  0  0
 13 16  1  0  0  0  0
 13 20  2  3  0  0  0
 14 43  1  0  0  0  0
 14 44  1  0  0  0  0
 14 45  1  0  0  0  0
 15 16  1  0  0  0  0
 15 46  1  0  0  0  0
 15 47  1  0  0  0  0
 16 48  1  0  0  0  0
 16 49  1  0  0  0  0
 17 50  1  0  0  0  0
 17 51  1  0  0  0  0
 17 52  1  0  0  0  0
 18 53  1  0  0  0  0
 18 54  1  0  0  0  0
 18 55  1  0  0  0  0
 19 21  2  3  0  0  0
 19 56  1  0  0  0  0
 20 22  1  0  0  0  0
 20 57  1  0  0  0  0
 21 23  1  0  0  0  0
 21 58  1  0  0  0  0
 22 24  2  3  0  0  0
 22 59  1  0  0  0  0
 23 25  1  0  0  0  0
 23 60  1  0  0  0  0
 24 26  1  0  0  0  0
 24 27  1  0  0  0  0
 25 29  1  0  0  0  0
 25 30  1  0  0  0  0
 25 33  1  0  0  0  0
 26 28  1  0  0  0  0
 26 61  1  0  0  0  0
 26 62  1  0  0  0  0
 27 31  1  0  0  0  0
 27 34  2  0  0  0  0
 28 32  1  0  0  0  0
 28 63  1  0  0  0  0
 29 65  1  0  0  0  0
 29 66  1  0  0  0  0
 29 67  1  0  0  0  0
 30 68  1  0  0  0  0
 30 69  1  0  0  0  0
 30 70  1  0  0  0  0
 31 32  1  0  0  0  0
 31 71  1  0  0  0  0
 32 72  1  0  0  0  0
 32 73  1  0  0  0  0
 34 74  1  0  0  0  0
 34 75  1  0  0  0  0
M  END
> <PUBCHEM_COMPOUND_CID>
57063938

> <PUBCHEM_COMPOUND_CANONICALIZED>
1

> <PUBCHEM_CACTVS_COMPLEXITY>
892

> <PUBCHEM_CACTVS_HBOND_ACCEPTOR>
5

> <PUBCHEM_CACTVS_HBOND_DONOR>
4

> <PUBCHEM_CACTVS_ROTATABLE_BOND>
6

> <PUBCHEM_CACTVS_SUBSKEYS>
AAADcfB4OAAAAAAAAAAAAAAAAAAAAYAAAAAwYAAAAAAAAGAAAAAAGgAACAAADxSggAICCAAAAgCIAiDSCAAAAAAgAAAICAEAAAgIFBYAAQAAUAAF4AAIkAOA4MQPgAAAAAAAAAAAAAAQACAAAQAACAAAAA==

> <PUBCHEM_IUPAC_OPENEYE_NAME>
(3S)-6-[(1R,3aS,7aR)-4-[2-[(3S,5R)-3,5-dihydroxy-2-methylene-cyclohexylidene]ethylidene]-7a-methyl-2,3,3a,5,6,7-hexahydro-1H-inden-1-yl]-3-hydroxy-2,2,6-trimethyl-hept-4-enoic acid

> <PUBCHEM_IUPAC_CAS_NAME>
(3S)-6-[(1R,3aS,7aR)-4-[2-[(3S,5R)-3,5-dihydroxy-2-methylenecyclohexylidene]ethylidene]-7a-methyl-2,3,3a,5,6,7-hexahydro-1H-inden-1-yl]-3-hydroxy-2,2,6-trimethyl-4-heptenoic acid

> <PUBCHEM_IUPAC_NAME_MARKUP>
(3<I>S</I>)-6-[(1<I>R</I>,3<I>a</I><I>S</I>,7<I>a</I><I>R</I>)-4-[2-[(3<I>S</I>,5<I>R</I>)-3,5-dihydroxy-2-methylidenecyclohexylidene]ethylidene]-7<I>a</I>-methyl-2,3,3<I>a</I>,5,6,7-hexahydro-1<I>H</I>-inden-1-yl]-3-hydroxy-2,2,6-trimethylhept-4-enoic acid

> <PUBCHEM_IUPAC_NAME>
(3S)-6-[(1R,3aS,7aR)-4-[2-[(3S,5R)-3,5-dihydroxy-2-methylidenecyclohexylidene]ethylidene]-7a-methyl-2,3,3a,5,6,7-hexahydro-1H-inden-1-yl]-3-hydroxy-2,2,6-trimethylhept-4-enoic acid

> <PUBCHEM_IUPAC_SYSTEMATIC_NAME>
(3S)-6-[(1R,3aS,7aR)-7a-methyl-4-[2-[(3S,5R)-2-methylidene-3,5-bis(oxidanyl)cyclohexylidene]ethylidene]-2,3,3a,5,6,7-hexahydro-1H-inden-1-yl]-2,2,6-trimethyl-3-oxidanyl-hept-4-enoic acid

> <PUBCHEM_IUPAC_TRADITIONAL_NAME>
(3S)-6-[(1R,3aS,7aR)-4-[2-[(3S,5R)-3,5-dihydroxy-2-methylene-cyclohexylidene]ethylidene]-7a-methyl-2,3,3a,5,6,7-hexahydro-1H-inden-1-yl]-3-hydroxy-2,2,6-trimethyl-hept-4-enoic acid

> <PUBCHEM_IUPAC_INCHI>
InChI=1S/C29H44O5/c1-18-20(16-21(30)17-23(18)31)10-9-19-8-7-14-29(6)22(19)11-12-24(29)27(2,3)15-13-25(32)28(4,5)26(33)34/h9-10,13,15,21-25,30-32H,1,7-8,11-12,14,16-17H2,2-6H3,(H,33,34)/t21-,22+,23+,24-,25+,29+/m1/s1

> <PUBCHEM_IUPAC_INCHIKEY>
ITLQUBVDXYRMEN-NISROMKZSA-N

> <PUBCHEM_XLOGP3_AA>
4.5

> <PUBCHEM_EXACT_MASS>
472.31887450

> <PUBCHEM_MOLECULAR_FORMULA>
C29H44O5

> <PUBCHEM_MOLECULAR_WEIGHT>
472.7

> <PUBCHEM_OPENEYE_CAN_SMILES>
CC12CCCC(=CC=C3CC(CC(C3=C)O)O)C1CCC2C(C)(C)C=CC(C(C)(C)C(=O)O)O

> <PUBCHEM_OPENEYE_ISO_SMILES>
C[C@]12CCCC(=CC=C3C[C@H](C[C@@H](C3=C)O)O)[C@@H]1CC[C@@H]2C(C)(C)C=C[C@@H](C(C)(C)C(=O)O)O

> <PUBCHEM_CACTVS_TPSA>
98

> <PUBCHEM_MONOISOTOPIC_WEIGHT>
472.31887450

> <PUBCHEM_TOTAL_CHARGE>
0

> <PUBCHEM_HEAVY_ATOM_COUNT>
34

> <PUBCHEM_ATOM_DEF_STEREO_COUNT>
6

> <PUBCHEM_ATOM_UDEF_STEREO_COUNT>
0

> <PUBCHEM_BOND_DEF_STEREO_COUNT>
0

> <PUBCHEM_BOND_UDEF_STEREO_COUNT>
3

> <PUBCHEM_ISOTOPIC_ATOM_COUNT>
0

> <PUBCHEM_COMPONENT_COUNT>
1

> <PUBCHEM_CACTVS_TAUTO_COUNT>
-1

> <PUBCHEM_COORDINATE_TYPE>
1
5
255

> <PUBCHEM_BONDANNOTATIONS>
23  1  6
13  20  1
19  21  1
28  2  5
22  24  1
31  3  6
6  14  5
7  35  6
8  36  6

$$$$
