 
  -OEChem-10192104352D

 18 18  0     1  0  0  0  0  0999 V2000
    6.0872   -0.7291    0.0000 P   0  0  0  0  0  0  0  0  0  0  0  0
    2.7071    1.4263    0.0000 P   0  0  0  0  0  0  0  0  0  0  0  0
    3.6730    1.6851    0.0000 O   0  0  0  0  0  0  0  0  0  0  0  0
    7.0532    1.4263    0.0000 O   0  0  0  0  0  0  0  0  0  0  0  0
    3.6730   -0.7291    0.0000 O   0  0  0  0  0  0  0  0  0  0  0  0
    2.0000    2.1334    0.0000 O   0  0  0  0  0  0  0  0  0  0  0  0
    5.3801   -0.0220    0.0000 N   0  0  0  0  0  0  0  0  0  0  0  0
    5.8284   -1.6950    0.0000 N   0  0  0  0  0  0  0  0  0  0  0  0
    5.3801    0.9780    0.0000 C   0  0  2  0  0  0  0  0  0  0  0  0
    4.3801    0.9780    0.0000 C   0  0  2  0  0  0  0  0  0  0  0  0
    4.3801   -0.0220    0.0000 C   0  0  0  0  0  0  0  0  0  0  0  0
    6.0872    1.6851    0.0000 C   0  0  0  0  0  0  0  0  0  0  0  0
    5.9529    0.7408    0.0000 H   0  0  0  0  0  0  0  0  0  0  0  0
    4.6174    1.5508    0.0000 H   0  0  0  0  0  0  0  0  0  0  0  0
    6.3493    2.2470    0.0000 H   0  0  0  0  0  0  0  0  0  0  0  0
    5.5794    2.0408    0.0000 H   0  0  0  0  0  0  0  0  0  0  0  0
    7.4916    1.8647    0.0000 H   0  0  0  0  0  0  0  0  0  0  0  0
    6.2668   -2.1334    0.0000 H   0  0  0  0  0  0  0  0  0  0  0  0
  1  7  1  0  0  0  0
  1  8  2  0  0  0  0
  2  3  1  0  0  0  0
  2  6  2  0  0  0  0
 10  3  1  6  0  0  0
  4 12  1  0  0  0  0
  4 17  1  0  0  0  0
  5 11  2  0  0  0  0
  7  9  1  0  0  0  0
  7 11  1  0  0  0  0
  8 18  1  0  0  0  0
  9 10  1  0  0  0  0
  9 12  1  6  0  0  0
  9 13  1  0  0  0  0
 10 11  1  0  0  0  0
 10 14  1  0  0  0  0
 12 15  1  0  0  0  0
 12 16  1  0  0  0  0
M  END
> <PUBCHEM_COMPOUND_CID>
130184953

> <PUBCHEM_COMPOUND_CANONICALIZED>
1

> <PUBCHEM_CACTVS_COMPLEXITY>
223

> <PUBCHEM_CACTVS_HBOND_ACCEPTOR>
5

> <PUBCHEM_CACTVS_HBOND_DONOR>
2

> <PUBCHEM_CACTVS_ROTATABLE_BOND>
3

> <PUBCHEM_CACTVS_SUBSKEYS>
AAADcYBjOAMAAAAAAAAAAAAAAABYAAAAAAAAAAAAAAAAAAAAAAAAHgAQiCAACDzhgAYAAAIAAxAIwAEQEIIAAAAAAAAAAAFIAAACEBgAgAAAQAAFBgCQAAAiAAAAAAAAAAAAAAAAAAAAAAAAAAAAAAAAAA==

> <PUBCHEM_IUPAC_OPENEYE_NAME>
(3R,4S)-4-(hydroxymethyl)-1-iminophosphanyl-3-phosphorosooxy-azetidin-2-one

> <PUBCHEM_IUPAC_CAS_NAME>
(3R,4S)-4-(hydroxymethyl)-1-iminophosphinyl-3-phosphorosooxy-2-azetidinone

> <PUBCHEM_IUPAC_NAME_MARKUP>
(3<I>R</I>,4<I>S</I>)-4-(hydroxymethyl)-1-iminophosphanyl-3-phosphorosooxyazetidin-2-one

> <PUBCHEM_IUPAC_NAME>
(3R,4S)-4-(hydroxymethyl)-1-iminophosphanyl-3-phosphorosooxyazetidin-2-one

> <PUBCHEM_IUPAC_SYSTEMATIC_NAME>
(3R,4S)-1-azanylidenephosphanyl-4-(hydroxymethyl)-3-phosphorosooxy-azetidin-2-one

> <PUBCHEM_IUPAC_TRADITIONAL_NAME>
(3R,4S)-1-iminophosphinyl-4-methylol-3-phosphorosooxy-azetidin-2-one

> <PUBCHEM_IUPAC_INCHI>
InChI=1S/C4H6N2O4P2/c5-11-6-2(1-7)3(4(6)8)10-12-9/h2-3,5,7H,1H2/t2-,3+/m0/s1

> <PUBCHEM_IUPAC_INCHIKEY>
PIBZCWLSHNDICS-STHAYSLISA-N

> <PUBCHEM_XLOGP3_AA>
-1

> <PUBCHEM_EXACT_MASS>
207.98028067

> <PUBCHEM_MOLECULAR_FORMULA>
C4H6N2O4P2

> <PUBCHEM_MOLECULAR_WEIGHT>
208.05

> <PUBCHEM_OPENEYE_CAN_SMILES>
C(C1C(C(=O)N1P=N)OP=O)O

> <PUBCHEM_OPENEYE_ISO_SMILES>
C([C@H]1[C@H](C(=O)N1P=N)OP=O)O

> <PUBCHEM_CACTVS_TPSA>
90.7

> <PUBCHEM_MONOISOTOPIC_WEIGHT>
207.98028067

> <PUBCHEM_TOTAL_CHARGE>
0

> <PUBCHEM_HEAVY_ATOM_COUNT>
12

> <PUBCHEM_ATOM_DEF_STEREO_COUNT>
2

> <PUBCHEM_ATOM_UDEF_STEREO_COUNT>
0

> <PUBCHEM_BOND_DEF_STEREO_COUNT>
0

> <PUBCHEM_BOND_UDEF_STEREO_COUNT>
0

> <PUBCHEM_ISOTOPIC_ATOM_COUNT>
0

> <PUBCHEM_COMPONENT_COUNT>
1

> <PUBCHEM_CACTVS_TAUTO_COUNT>
-1

> <PUBCHEM_COORDINATE_TYPE>
1
5
255

> <PUBCHEM_BONDANNOTATIONS>
10  3  6
9  12  6

$$$$
