 
  -OEChem-10192103382D

 28 28  0     0  0  0  0  0  0999 V2000
    2.8660    0.4400    0.0000 O   0  0  0  0  0  0  0  0  0  0  0  0
    6.3301    0.4400    0.0000 O   0  0  0  0  0  0  0  0  0  0  0  0
    5.4641    1.9400    0.0000 O   0  0  0  0  0  0  0  0  0  0  0  0
    7.1962   -1.0600    0.0000 O   0  0  0  0  0  0  0  0  0  0  0  0
    2.0000   -1.0600    0.0000 O   0  0  0  0  0  0  0  0  0  0  0  0
    4.5981    0.4400    0.0000 C   0  0  0  0  0  0  0  0  0  0  0  0
    5.4641   -1.0600    0.0000 C   0  0  0  0  0  0  0  0  0  0  0  0
    3.7320   -1.0600    0.0000 C   0  0  0  0  0  0  0  0  0  0  0  0
    3.7320   -0.0600    0.0000 C   0  0  0  0  0  0  0  0  0  0  0  0
    5.4641   -0.0600    0.0000 C   0  0  0  0  0  0  0  0  0  0  0  0
    4.5981   -1.5600    0.0000 C   0  0  0  0  0  0  0  0  0  0  0  0
    4.5981    1.4400    0.0000 C   0  0  0  0  0  0  0  0  0  0  0  0
    6.3301   -1.5600    0.0000 C   0  0  0  0  0  0  0  0  0  0  0  0
    2.8660   -1.5600    0.0000 C   0  0  0  0  0  0  0  0  0  0  0  0
    6.3301   -2.5600    0.0000 C   0  0  0  0  0  0  0  0  0  0  0  0
    2.8660   -2.5600    0.0000 C   0  0  0  0  0  0  0  0  0  0  0  0
    4.5981   -2.1800    0.0000 H   0  0  0  0  0  0  0  0  0  0  0  0
    4.3860    2.0226    0.0000 H   0  0  0  0  0  0  0  0  0  0  0  0
    3.9875    1.3323    0.0000 H   0  0  0  0  0  0  0  0  0  0  0  0
    5.7101   -2.5600    0.0000 H   0  0  0  0  0  0  0  0  0  0  0  0
    6.3301   -3.1800    0.0000 H   0  0  0  0  0  0  0  0  0  0  0  0
    6.9501   -2.5600    0.0000 H   0  0  0  0  0  0  0  0  0  0  0  0
    2.2460   -2.5600    0.0000 H   0  0  0  0  0  0  0  0  0  0  0  0
    2.8660   -3.1800    0.0000 H   0  0  0  0  0  0  0  0  0  0  0  0
    3.4860   -2.5600    0.0000 H   0  0  0  0  0  0  0  0  0  0  0  0
    2.8660    1.0600    0.0000 H   0  0  0  0  0  0  0  0  0  0  0  0
    6.8671    0.1300    0.0000 H   0  0  0  0  0  0  0  0  0  0  0  0
    5.4641    2.5600    0.0000 H   0  0  0  0  0  0  0  0  0  0  0  0
  1  9  1  0  0  0  0
  1 26  1  0  0  0  0
  2 10  1  0  0  0  0
  2 27  1  0  0  0  0
  3 12  1  0  0  0  0
  3 28  1  0  0  0  0
  4 13  2  0  0  0  0
  5 14  2  0  0  0  0
  6  9  2  0  0  0  0
  6 10  1  0  0  0  0
  6 12  1  0  0  0  0
  7 10  2  0  0  0  0
  7 11  1  0  0  0  0
  7 13  1  0  0  0  0
  8  9  1  0  0  0  0
  8 11  2  0  0  0  0
  8 14  1  0  0  0  0
 11 17  1  0  0  0  0
 12 18  1  0  0  0  0
 12 19  1  0  0  0  0
 13 15  1  0  0  0  0
 14 16  1  0  0  0  0
 15 20  1  0  0  0  0
 15 21  1  0  0  0  0
 15 22  1  0  0  0  0
 16 23  1  0  0  0  0
 16 24  1  0  0  0  0
 16 25  1  0  0  0  0
M  END
> <PUBCHEM_COMPOUND_CID>
12289571

> <PUBCHEM_COMPOUND_CANONICALIZED>
1

> <PUBCHEM_CACTVS_COMPLEXITY>
262

> <PUBCHEM_CACTVS_HBOND_ACCEPTOR>
5

> <PUBCHEM_CACTVS_HBOND_DONOR>
3

> <PUBCHEM_CACTVS_ROTATABLE_BOND>
3

> <PUBCHEM_CACTVS_SUBSKEYS>
AAADccBwOAAAAAAAAAAAAAAAAAAAAAAAAAAwAAAAAAAAAAABAAAAGgAACAAADASgmAIyBoAAAgCIAqBSAAACAAAkIAAAiAEECMgINzaCFBKAcUAl4BUImYeI7uTuIAACCAAIAABAAAQQABAAAAAAAAAAAA==

> <PUBCHEM_IUPAC_OPENEYE_NAME>
1-[5-acetyl-2,4-dihydroxy-3-(hydroxymethyl)phenyl]ethanone

> <PUBCHEM_IUPAC_CAS_NAME>
1-[5-acetyl-2,4-dihydroxy-3-(hydroxymethyl)phenyl]ethanone

> <PUBCHEM_IUPAC_NAME_MARKUP>
1-[5-acetyl-2,4-dihydroxy-3-(hydroxymethyl)phenyl]ethanone

> <PUBCHEM_IUPAC_NAME>
1-[5-acetyl-2,4-dihydroxy-3-(hydroxymethyl)phenyl]ethanone

> <PUBCHEM_IUPAC_SYSTEMATIC_NAME>
1-[5-ethanoyl-3-(hydroxymethyl)-2,4-bis(oxidanyl)phenyl]ethanone

> <PUBCHEM_IUPAC_TRADITIONAL_NAME>
1-(5-acetyl-2,4-dihydroxy-3-methylol-phenyl)ethanone

> <PUBCHEM_IUPAC_INCHI>
InChI=1S/C11H12O5/c1-5(13)7-3-8(6(2)14)11(16)9(4-12)10(7)15/h3,12,15-16H,4H2,1-2H3

> <PUBCHEM_IUPAC_INCHIKEY>
IXRCGPXEIFQIBE-UHFFFAOYSA-N

> <PUBCHEM_XLOGP3_AA>
0.8

> <PUBCHEM_EXACT_MASS>
224.06847348

> <PUBCHEM_MOLECULAR_FORMULA>
C11H12O5

> <PUBCHEM_MOLECULAR_WEIGHT>
224.21

> <PUBCHEM_OPENEYE_CAN_SMILES>
CC(=O)C1=CC(=C(C(=C1O)CO)O)C(=O)C

> <PUBCHEM_OPENEYE_ISO_SMILES>
CC(=O)C1=CC(=C(C(=C1O)CO)O)C(=O)C

> <PUBCHEM_CACTVS_TPSA>
94.8

> <PUBCHEM_MONOISOTOPIC_WEIGHT>
224.06847348

> <PUBCHEM_TOTAL_CHARGE>
0

> <PUBCHEM_HEAVY_ATOM_COUNT>
16

> <PUBCHEM_ATOM_DEF_STEREO_COUNT>
0

> <PUBCHEM_ATOM_UDEF_STEREO_COUNT>
0

> <PUBCHEM_BOND_DEF_STEREO_COUNT>
0

> <PUBCHEM_BOND_UDEF_STEREO_COUNT>
0

> <PUBCHEM_ISOTOPIC_ATOM_COUNT>
0

> <PUBCHEM_COMPONENT_COUNT>
1

> <PUBCHEM_CACTVS_TAUTO_COUNT>
-1

> <PUBCHEM_COORDINATE_TYPE>
1
5
255

> <PUBCHEM_BONDANNOTATIONS>
6  10  8
6  9  8
7  10  8
7  11  8
8  11  8
8  9  8

$$$$
