 
  -OEChem-10192103352D

 66 66  0     1  0  0  0  0  0999 V2000
    8.9282    1.3100    0.0000 O   0  0  0  0  0  0  0  0  0  0  0  0
    5.4641   -0.6900    0.0000 O   0  0  0  0  0  0  0  0  0  0  0  0
   10.6603   -1.6900    0.0000 O   0  0  0  0  0  0  0  0  0  0  0  0
    7.1962   -3.6900    0.0000 O   0  0  0  0  0  0  0  0  0  0  0  0
    7.1962    1.3100    0.0000 O   0  0  0  0  0  0  0  0  0  0  0  0
    6.3301    0.8100    0.0000 O   0  0  0  0  0  0  0  0  0  0  0  0
    9.7942   -3.1900    0.0000 O   0  0  0  0  0  0  0  0  0  0  0  0
    8.9282   -3.6900    0.0000 O   0  0  0  0  0  0  0  0  0  0  0  0
    8.0622   -0.1900    0.0000 C   0  0  3  0  0  0  0  0  0  0  0  0
    7.1962   -0.6900    0.0000 C   0  0  3  0  0  0  0  0  0  0  0  0
    8.9282   -1.6900    0.0000 C   0  0  3  0  0  0  0  0  0  0  0  0
    8.0622   -2.1900    0.0000 C   0  0  3  0  0  0  0  0  0  0  0  0
    8.9282   -0.6900    0.0000 C   0  0  0  0  0  0  0  0  0  0  0  0
    7.1962   -1.6900    0.0000 C   0  0  0  0  0  0  0  0  0  0  0  0
    8.0622    0.8100    0.0000 C   0  0  0  0  0  0  0  0  0  0  0  0
    6.3301   -0.1900    0.0000 C   0  0  0  0  0  0  0  0  0  0  0  0
    9.7942   -2.1900    0.0000 C   0  0  0  0  0  0  0  0  0  0  0  0
    8.0622   -3.1900    0.0000 C   0  0  0  0  0  0  0  0  0  0  0  0
    8.9282    2.3100    0.0000 C   0  0  0  0  0  0  0  0  0  0  0  0
    4.5981   -0.1900    0.0000 C   0  0  0  0  0  0  0  0  0  0  0  0
   11.5263   -2.1900    0.0000 C   0  0  0  0  0  0  0  0  0  0  0  0
    9.7942    2.8100    0.0000 C   0  0  0  0  0  0  0  0  0  0  0  0
    3.7320   -0.6900    0.0000 C   0  0  0  0  0  0  0  0  0  0  0  0
   12.3923   -1.6900    0.0000 C   0  0  0  0  0  0  0  0  0  0  0  0
    9.7942    3.8100    0.0000 C   0  0  0  0  0  0  0  0  0  0  0  0
    2.8660   -0.1900    0.0000 C   0  0  0  0  0  0  0  0  0  0  0  0
   13.2583   -2.1900    0.0000 C   0  0  0  0  0  0  0  0  0  0  0  0
   10.6603    4.3100    0.0000 C   0  0  0  0  0  0  0  0  0  0  0  0
    2.0000   -0.6900    0.0000 C   0  0  0  0  0  0  0  0  0  0  0  0
   14.1244   -1.6900    0.0000 C   0  0  0  0  0  0  0  0  0  0  0  0
    7.5252    0.1200    0.0000 H   0  0  0  0  0  0  0  0  0  0  0  0
    6.6592   -1.0000    0.0000 H   0  0  0  0  0  0  0  0  0  0  0  0
    9.4651   -1.3800    0.0000 H   0  0  0  0  0  0  0  0  0  0  0  0
    7.5252   -2.5000    0.0000 H   0  0  0  0  0  0  0  0  0  0  0  0
    9.5388   -0.7977    0.0000 H   0  0  0  0  0  0  0  0  0  0  0  0
    9.1403   -0.1074    0.0000 H   0  0  0  0  0  0  0  0  0  0  0  0
    6.5856   -1.5823    0.0000 H   0  0  0  0  0  0  0  0  0  0  0  0
    6.9841   -2.2726    0.0000 H   0  0  0  0  0  0  0  0  0  0  0  0
    7.1962   -4.3100    0.0000 H   0  0  0  0  0  0  0  0  0  0  0  0
    8.7162    2.8926    0.0000 H   0  0  0  0  0  0  0  0  0  0  0  0
    8.3176    2.2023    0.0000 H   0  0  0  0  0  0  0  0  0  0  0  0
    4.9966    0.2849    0.0000 H   0  0  0  0  0  0  0  0  0  0  0  0
    4.1996    0.2849    0.0000 H   0  0  0  0  0  0  0  0  0  0  0  0
   11.1278   -2.6650    0.0000 H   0  0  0  0  0  0  0  0  0  0  0  0
   11.9248   -2.6650    0.0000 H   0  0  0  0  0  0  0  0  0  0  0  0
   10.0063    2.2274    0.0000 H   0  0  0  0  0  0  0  0  0  0  0  0
   10.4048    2.9177    0.0000 H   0  0  0  0  0  0  0  0  0  0  0  0
    3.3335   -1.1650    0.0000 H   0  0  0  0  0  0  0  0  0  0  0  0
    4.1306   -1.1650    0.0000 H   0  0  0  0  0  0  0  0  0  0  0  0
   12.7908   -1.2150    0.0000 H   0  0  0  0  0  0  0  0  0  0  0  0
   11.9938   -1.2150    0.0000 H   0  0  0  0  0  0  0  0  0  0  0  0
    9.5822    4.3926    0.0000 H   0  0  0  0  0  0  0  0  0  0  0  0
    9.1836    3.7023    0.0000 H   0  0  0  0  0  0  0  0  0  0  0  0
    3.2646    0.2849    0.0000 H   0  0  0  0  0  0  0  0  0  0  0  0
    2.4675    0.2849    0.0000 H   0  0  0  0  0  0  0  0  0  0  0  0
   12.8598   -2.6650    0.0000 H   0  0  0  0  0  0  0  0  0  0  0  0
   13.6569   -2.6650    0.0000 H   0  0  0  0  0  0  0  0  0  0  0  0
   10.9703    3.7731    0.0000 H   0  0  0  0  0  0  0  0  0  0  0  0
   11.1972    4.6200    0.0000 H   0  0  0  0  0  0  0  0  0  0  0  0
   10.3503    4.8469    0.0000 H   0  0  0  0  0  0  0  0  0  0  0  0
    1.6900   -0.1531    0.0000 H   0  0  0  0  0  0  0  0  0  0  0  0
    1.4631   -1.0000    0.0000 H   0  0  0  0  0  0  0  0  0  0  0  0
    2.3100   -1.2269    0.0000 H   0  0  0  0  0  0  0  0  0  0  0  0
   14.4344   -2.2269    0.0000 H   0  0  0  0  0  0  0  0  0  0  0  0
   14.6613   -1.3800    0.0000 H   0  0  0  0  0  0  0  0  0  0  0  0
   13.8144   -1.1531    0.0000 H   0  0  0  0  0  0  0  0  0  0  0  0
  1 15  1  0  0  0  0
  1 19  1  0  0  0  0
  2 16  1  0  0  0  0
  2 20  1  0  0  0  0
  3 17  1  0  0  0  0
  3 21  1  0  0  0  0
  4 18  1  0  0  0  0
  4 39  1  0  0  0  0
  5 15  2  0  0  0  0
  6 16  2  0  0  0  0
  7 17  2  0  0  0  0
  8 18  2  0  0  0  0
  9 10  1  0  0  0  0
  9 13  1  0  0  0  0
  9 15  1  0  0  0  0
  9 31  1  0  0  0  0
 10 14  1  0  0  0  0
 10 16  1  0  0  0  0
 10 32  1  0  0  0  0
 11 12  1  0  0  0  0
 11 13  1  0  0  0  0
 11 17  1  0  0  0  0
 11 33  1  0  0  0  0
 12 14  1  0  0  0  0
 12 18  1  0  0  0  0
 12 34  1  0  0  0  0
 13 35  1  0  0  0  0
 13 36  1  0  0  0  0
 14 37  1  0  0  0  0
 14 38  1  0  0  0  0
 19 22  1  0  0  0  0
 19 40  1  0  0  0  0
 19 41  1  0  0  0  0
 20 23  1  0  0  0  0
 20 42  1  0  0  0  0
 20 43  1  0  0  0  0
 21 24  1  0  0  0  0
 21 44  1  0  0  0  0
 21 45  1  0  0  0  0
 22 25  1  0  0  0  0
 22 46  1  0  0  0  0
 22 47  1  0  0  0  0
 23 26  1  0  0  0  0
 23 48  1  0  0  0  0
 23 49  1  0  0  0  0
 24 27  1  0  0  0  0
 24 50  1  0  0  0  0
 24 51  1  0  0  0  0
 25 28  1  0  0  0  0
 25 52  1  0  0  0  0
 25 53  1  0  0  0  0
 26 29  1  0  0  0  0
 26 54  1  0  0  0  0
 26 55  1  0  0  0  0
 27 30  1  0  0  0  0
 27 56  1  0  0  0  0
 27 57  1  0  0  0  0
 28 58  1  0  0  0  0
 28 59  1  0  0  0  0
 28 60  1  0  0  0  0
 29 61  1  0  0  0  0
 29 62  1  0  0  0  0
 29 63  1  0  0  0  0
 30 64  1  0  0  0  0
 30 65  1  0  0  0  0
 30 66  1  0  0  0  0
M  END
> <PUBCHEM_COMPOUND_CID>
23444027

> <PUBCHEM_COMPOUND_CANONICALIZED>
1

> <PUBCHEM_CACTVS_COMPLEXITY>
574

> <PUBCHEM_CACTVS_HBOND_ACCEPTOR>
8

> <PUBCHEM_CACTVS_HBOND_DONOR>
1

> <PUBCHEM_CACTVS_ROTATABLE_BOND>
16

> <PUBCHEM_CACTVS_SUBSKEYS>
AAADcfB4PAAAAAAAAAAAAAAAAAAAAAAAAAAwAAAAAAAAAAAAAAAAGgAACAAADQCggAICCAAABgAIAACQCAAAAAAAAAAAAAEAAAAAABIAAAACQAAEAAAAAAHL7viOgAAAAAAAAACAAAQAACAAAAAAAAAAAA==

> <PUBCHEM_IUPAC_OPENEYE_NAME>
2,4,5-tris(butoxycarbonyl)cyclohexanecarboxylic acid

> <PUBCHEM_IUPAC_CAS_NAME>
2,4,5-tris[butoxy(oxo)methyl]-1-cyclohexanecarboxylic acid

> <PUBCHEM_IUPAC_NAME_MARKUP>
2,4,5-tris(butoxycarbonyl)cyclohexane-1-carboxylic acid

> <PUBCHEM_IUPAC_NAME>
2,4,5-tris(butoxycarbonyl)cyclohexane-1-carboxylic acid

> <PUBCHEM_IUPAC_SYSTEMATIC_NAME>
2,4,5-tris(butoxycarbonyl)cyclohexane-1-carboxylic acid

> <PUBCHEM_IUPAC_TRADITIONAL_NAME>
2,4,5-tris(butoxycarbonyl)cyclohexanecarboxylic acid

> <PUBCHEM_IUPAC_INCHI>
InChI=1S/C22H36O8/c1-4-7-10-28-20(25)16-14-18(22(27)30-12-9-6-3)17(13-15(16)19(23)24)21(26)29-11-8-5-2/h15-18H,4-14H2,1-3H3,(H,23,24)

> <PUBCHEM_IUPAC_INCHIKEY>
OCOTWWJZLXQLOH-UHFFFAOYSA-N

> <PUBCHEM_XLOGP3_AA>
3.6

> <PUBCHEM_EXACT_MASS>
428.24101810

> <PUBCHEM_MOLECULAR_FORMULA>
C22H36O8

> <PUBCHEM_MOLECULAR_WEIGHT>
428.5

> <PUBCHEM_OPENEYE_CAN_SMILES>
CCCCOC(=O)C1CC(C(CC1C(=O)OCCCC)C(=O)OCCCC)C(=O)O

> <PUBCHEM_OPENEYE_ISO_SMILES>
CCCCOC(=O)C1CC(C(CC1C(=O)OCCCC)C(=O)OCCCC)C(=O)O

> <PUBCHEM_CACTVS_TPSA>
116

> <PUBCHEM_MONOISOTOPIC_WEIGHT>
428.24101810

> <PUBCHEM_TOTAL_CHARGE>
0

> <PUBCHEM_HEAVY_ATOM_COUNT>
30

> <PUBCHEM_ATOM_DEF_STEREO_COUNT>
0

> <PUBCHEM_ATOM_UDEF_STEREO_COUNT>
4

> <PUBCHEM_BOND_DEF_STEREO_COUNT>
0

> <PUBCHEM_BOND_UDEF_STEREO_COUNT>
0

> <PUBCHEM_ISOTOPIC_ATOM_COUNT>
0

> <PUBCHEM_COMPONENT_COUNT>
1

> <PUBCHEM_CACTVS_TAUTO_COUNT>
-1

> <PUBCHEM_COORDINATE_TYPE>
1
5
255

> <PUBCHEM_BONDANNOTATIONS>
10  16  3
11  17  3
12  18  3
9  15  3

$$$$
