 
  -OEChem-10192104262D

 43 43  0     1  0  0  0  0  0999 V2000
    9.0877   -2.2339    0.0000 O   0  0  0  0  0  0  0  0  0  0  0  0
   11.0415    1.6139    0.0000 O   0  0  0  0  0  0  0  0  0  0  0  0
   12.1435    0.8133    0.0000 O   0  0  0  0  0  0  0  0  0  0  0  0
    9.3094    1.6139    0.0000 O   0  0  0  0  0  0  0  0  0  0  0  0
    2.5896   -1.9143    0.0000 O   0  0  0  0  0  0  0  0  0  0  0  0
    3.1249   -0.2670    0.0000 O   0  0  0  0  0  0  0  0  0  0  0  0
    9.3665   -0.4739    0.0000 C   0  0  2  0  0  0  0  0  0  0  0  0
   10.1755    0.1139    0.0000 C   0  0  1  0  0  0  0  0  0  0  0  0
   10.9845   -0.4739    0.0000 C   0  0  2  0  0  0  0  0  0  0  0  0
   10.6755   -1.4249    0.0000 C   0  0  0  0  0  0  0  0  0  0  0  0
    8.4154   -0.1648    0.0000 C   0  0  0  0  0  0  0  0  0  0  0  0
    9.6755   -1.4249    0.0000 C   0  0  0  0  0  0  0  0  0  0  0  0
    7.6723   -0.8340    0.0000 C   0  0  0  0  0  0  0  0  0  0  0  0
   11.9356   -0.1648    0.0000 C   0  0  0  0  0  0  0  0  0  0  0  0
   10.1755    1.1139    0.0000 C   0  0  0  0  0  0  0  0  0  0  0  0
    6.7212   -0.5250    0.0000 C   0  0  0  0  0  0  0  0  0  0  0  0
    5.9781   -1.1941    0.0000 C   0  0  0  0  0  0  0  0  0  0  0  0
   12.6787   -0.8340    0.0000 C   0  0  0  0  0  0  0  0  0  0  0  0
    5.0270   -0.8851    0.0000 C   0  0  0  0  0  0  0  0  0  0  0  0
    4.2839   -1.5542    0.0000 C   0  0  0  0  0  0  0  0  0  0  0  0
    3.3328   -1.2452    0.0000 C   0  0  0  0  0  0  0  0  0  0  0  0
    9.2695    0.1385    0.0000 H   0  0  0  0  0  0  0  0  0  0  0  0
    9.6230    0.3954    0.0000 H   0  0  0  0  0  0  0  0  0  0  0  0
   11.4229   -0.9123    0.0000 H   0  0  0  0  0  0  0  0  0  0  0  0
   10.6107   -2.0415    0.0000 H   0  0  0  0  0  0  0  0  0  0  0  0
   11.2819   -1.5538    0.0000 H   0  0  0  0  0  0  0  0  0  0  0  0
    8.7065    0.3826    0.0000 H   0  0  0  0  0  0  0  0  0  0  0  0
    7.9268    0.2169    0.0000 H   0  0  0  0  0  0  0  0  0  0  0  0
    7.3812   -1.3814    0.0000 H   0  0  0  0  0  0  0  0  0  0  0  0
    8.1608   -1.2157    0.0000 H   0  0  0  0  0  0  0  0  0  0  0  0
    7.0123    0.0225    0.0000 H   0  0  0  0  0  0  0  0  0  0  0  0
    6.2326   -0.1432    0.0000 H   0  0  0  0  0  0  0  0  0  0  0  0
    5.6870   -1.7415    0.0000 H   0  0  0  0  0  0  0  0  0  0  0  0
    6.4666   -1.5758    0.0000 H   0  0  0  0  0  0  0  0  0  0  0  0
   12.2638   -1.2947    0.0000 H   0  0  0  0  0  0  0  0  0  0  0  0
   13.1394   -1.2488    0.0000 H   0  0  0  0  0  0  0  0  0  0  0  0
   13.0936   -0.3732    0.0000 H   0  0  0  0  0  0  0  0  0  0  0  0
    5.3181   -0.3376    0.0000 H   0  0  0  0  0  0  0  0  0  0  0  0
    4.5384   -0.5034    0.0000 H   0  0  0  0  0  0  0  0  0  0  0  0
   11.0415    2.2339    0.0000 H   0  0  0  0  0  0  0  0  0  0  0  0
    3.9928   -2.1016    0.0000 H   0  0  0  0  0  0  0  0  0  0  0  0
    4.7724   -1.9359    0.0000 H   0  0  0  0  0  0  0  0  0  0  0  0
    2.0000   -1.7227    0.0000 H   0  0  0  0  0  0  0  0  0  0  0  0
  1 12  2  0  0  0  0
  2 15  1  0  0  0  0
  2 40  1  0  0  0  0
  3 14  2  0  0  0  0
  4 15  2  0  0  0  0
  5 21  1  0  0  0  0
  5 43  1  0  0  0  0
  6 21  2  0  0  0  0
  7  8  1  0  0  0  0
  7 11  1  1  0  0  0
  7 12  1  0  0  0  0
  7 22  1  0  0  0  0
  8  9  1  0  0  0  0
  8 15  1  6  0  0  0
  8 23  1  0  0  0  0
  9 10  1  0  0  0  0
  9 14  1  1  0  0  0
  9 24  1  0  0  0  0
 10 12  1  0  0  0  0
 10 25  1  0  0  0  0
 10 26  1  0  0  0  0
 11 13  1  0  0  0  0
 11 27  1  0  0  0  0
 11 28  1  0  0  0  0
 13 16  1  0  0  0  0
 13 29  1  0  0  0  0
 13 30  1  0  0  0  0
 14 18  1  0  0  0  0
 16 17  1  0  0  0  0
 16 31  1  0  0  0  0
 16 32  1  0  0  0  0
 17 19  1  0  0  0  0
 17 33  1  0  0  0  0
 17 34  1  0  0  0  0
 18 35  1  0  0  0  0
 18 36  1  0  0  0  0
 18 37  1  0  0  0  0
 19 20  1  0  0  0  0
 19 38  1  0  0  0  0
 19 39  1  0  0  0  0
 20 21  1  0  0  0  0
 20 41  1  0  0  0  0
 20 42  1  0  0  0  0
M  END
> <PUBCHEM_COMPOUND_CID>
22788038

> <PUBCHEM_COMPOUND_CANONICALIZED>
1

> <PUBCHEM_CACTVS_COMPLEXITY>
428

> <PUBCHEM_CACTVS_HBOND_ACCEPTOR>
6

> <PUBCHEM_CACTVS_HBOND_DONOR>
2

> <PUBCHEM_CACTVS_ROTATABLE_BOND>
9

> <PUBCHEM_CACTVS_SUBSKEYS>
AAADceBwOAAAAAAAAAAAAAAAAAAAAYAAAAAAAAAAAAAAAAAAAAAAGgAACAAADQSAgAACCAAAAgAIAICQCAAAAAAAAAAAAAEAAAAAABIAAAAAQAAEAAAAAAGLzuCugAAAAAAAAAAAAAAAAAAAAQAACAAAAA==

> <PUBCHEM_IUPAC_OPENEYE_NAME>
(1R,2S,5S)-5-acetyl-2-(6-carboxyhexyl)-3-oxo-cyclopentanecarboxylic acid

> <PUBCHEM_IUPAC_CAS_NAME>
(1R,2S,5S)-5-acetyl-2-(6-carboxyhexyl)-3-oxo-1-cyclopentanecarboxylic acid

> <PUBCHEM_IUPAC_NAME_MARKUP>
(1<I>R</I>,2<I>S</I>,5<I>S</I>)-5-acetyl-2-(6-carboxyhexyl)-3-oxocyclopentane-1-carboxylic acid

> <PUBCHEM_IUPAC_NAME>
(1R,2S,5S)-5-acetyl-2-(6-carboxyhexyl)-3-oxocyclopentane-1-carboxylic acid

> <PUBCHEM_IUPAC_SYSTEMATIC_NAME>
(1R,2S,5S)-5-ethanoyl-3-oxidanylidene-2-(7-oxidanyl-7-oxidanylidene-heptyl)cyclopentane-1-carboxylic acid

> <PUBCHEM_IUPAC_TRADITIONAL_NAME>
(1R,2S,5S)-5-acetyl-2-(6-carboxyhexyl)-3-keto-cyclopentanecarboxylic acid

> <PUBCHEM_IUPAC_INCHI>
InChI=1S/C15H22O6/c1-9(16)11-8-12(17)10(14(11)15(20)21)6-4-2-3-5-7-13(18)19/h10-11,14H,2-8H2,1H3,(H,18,19)(H,20,21)/t10-,11-,14+/m1/s1

> <PUBCHEM_IUPAC_INCHIKEY>
QDYYOVSCISUOPJ-GYSYKLTISA-N

> <PUBCHEM_XLOGP3_AA>
0.8

> <PUBCHEM_EXACT_MASS>
298.14163842

> <PUBCHEM_MOLECULAR_FORMULA>
C15H22O6

> <PUBCHEM_MOLECULAR_WEIGHT>
298.33

> <PUBCHEM_OPENEYE_CAN_SMILES>
CC(=O)C1CC(=O)C(C1C(=O)O)CCCCCCC(=O)O

> <PUBCHEM_OPENEYE_ISO_SMILES>
CC(=O)[C@H]1CC(=O)[C@H]([C@@H]1C(=O)O)CCCCCCC(=O)O

> <PUBCHEM_CACTVS_TPSA>
109

> <PUBCHEM_MONOISOTOPIC_WEIGHT>
298.14163842

> <PUBCHEM_TOTAL_CHARGE>
0

> <PUBCHEM_HEAVY_ATOM_COUNT>
21

> <PUBCHEM_ATOM_DEF_STEREO_COUNT>
3

> <PUBCHEM_ATOM_UDEF_STEREO_COUNT>
0

> <PUBCHEM_BOND_DEF_STEREO_COUNT>
0

> <PUBCHEM_BOND_UDEF_STEREO_COUNT>
0

> <PUBCHEM_ISOTOPIC_ATOM_COUNT>
0

> <PUBCHEM_COMPONENT_COUNT>
1

> <PUBCHEM_CACTVS_TAUTO_COUNT>
-1

> <PUBCHEM_COORDINATE_TYPE>
1
5
255

> <PUBCHEM_BONDANNOTATIONS>
7  11  5
8  15  6
9  14  5

$$$$
