 
  -OEChem-10192104082D

 53 53  0     1  0  0  0  0  0999 V2000
   10.5369   -0.9050    0.0000 O   0  0  0  0  0  0  0  0  0  0  0  0
    8.5689   -1.6044    0.0000 O   0  0  0  0  0  0  0  0  0  0  0  0
   12.5049   -1.6044    0.0000 O   0  0  0  0  0  0  0  0  0  0  0  0
    6.5474    1.3811    0.0000 O   0  0  0  0  0  0  0  0  0  0  0  0
   13.9912   -0.2661    0.0000 O   0  0  0  0  0  0  0  0  0  0  0  0
    5.1805   -0.8842    0.0000 O   0  0  0  0  0  0  0  0  0  0  0  0
   12.8322    1.0210    0.0000 O   0  0  0  0  0  0  0  0  0  0  0  0
    3.6942    0.4541    0.0000 O   0  0  0  0  0  0  0  0  0  0  0  0
    4.8532    1.7412    0.0000 O   0  0  0  0  0  0  0  0  0  0  0  0
    9.7279   -0.3172    0.0000 C   0  0  1  0  0  0  0  0  0  0  0  0
   10.0369    0.6338    0.0000 C   0  0  0  0  0  0  0  0  0  0  0  0
   11.3459   -0.3172    0.0000 C   0  0  2  0  0  0  0  0  0  0  0  0
   11.0369    0.6338    0.0000 C   0  0  0  0  0  0  0  0  0  0  0  0
    8.7768   -0.6263    0.0000 C   0  0  1  0  0  0  0  0  0  0  0  0
    8.0337    0.0429    0.0000 C   0  0  0  0  0  0  0  0  0  0  0  0
   12.2970   -0.6263    0.0000 C   0  0  1  0  0  0  0  0  0  0  0  0
    7.0826   -0.2661    0.0000 C   0  0  0  0  0  0  0  0  0  0  0  0
    6.3395    0.4030    0.0000 C   0  0  3  0  0  0  0  0  0  0  0  0
   13.0401    0.0429    0.0000 C   0  0  0  0  0  0  0  0  0  0  0  0
    5.3884    0.0940    0.0000 C   0  0  3  0  0  0  0  0  0  0  0  0
    4.6453    0.7631    0.0000 C   0  0  0  0  0  0  0  0  0  0  0  0
   14.7343    0.4030    0.0000 C   0  0  0  0  0  0  0  0  0  0  0  0
   15.6854    0.0940    0.0000 C   0  0  0  0  0  0  0  0  0  0  0  0
    2.9511    1.1232    0.0000 C   0  0  0  0  0  0  0  0  0  0  0  0
    2.0000    0.8142    0.0000 C   0  0  0  0  0  0  0  0  0  0  0  0
    9.5949   -1.1568    0.0000 H   0  0  0  0  0  0  0  0  0  0  0  0
   10.1017    1.2504    0.0000 H   0  0  0  0  0  0  0  0  0  0  0  0
    9.4304    0.7627    0.0000 H   0  0  0  0  0  0  0  0  0  0  0  0
   11.4789   -1.1568    0.0000 H   0  0  0  0  0  0  0  0  0  0  0  0
   11.6433    0.7627    0.0000 H   0  0  0  0  0  0  0  0  0  0  0  0
   10.9721    1.2504    0.0000 H   0  0  0  0  0  0  0  0  0  0  0  0
    8.1872   -0.8178    0.0000 H   0  0  0  0  0  0  0  0  0  0  0  0
    8.5222    0.4246    0.0000 H   0  0  0  0  0  0  0  0  0  0  0  0
    7.7426    0.5903    0.0000 H   0  0  0  0  0  0  0  0  0  0  0  0
   12.8866   -0.8178    0.0000 H   0  0  0  0  0  0  0  0  0  0  0  0
    6.5940   -0.6479    0.0000 H   0  0  0  0  0  0  0  0  0  0  0  0
    7.3737   -0.8136    0.0000 H   0  0  0  0  0  0  0  0  0  0  0  0
    6.9291    0.5946    0.0000 H   0  0  0  0  0  0  0  0  0  0  0  0
    7.9792   -1.7960    0.0000 H   0  0  0  0  0  0  0  0  0  0  0  0
    4.7988   -0.0976    0.0000 H   0  0  0  0  0  0  0  0  0  0  0  0
   13.0945   -1.7960    0.0000 H   0  0  0  0  0  0  0  0  0  0  0  0
    6.0866    1.7960    0.0000 H   0  0  0  0  0  0  0  0  0  0  0  0
    4.5908   -1.0758    0.0000 H   0  0  0  0  0  0  0  0  0  0  0  0
   15.0254    0.9504    0.0000 H   0  0  0  0  0  0  0  0  0  0  0  0
   14.2457    0.7847    0.0000 H   0  0  0  0  0  0  0  0  0  0  0  0
   15.4938   -0.4957    0.0000 H   0  0  0  0  0  0  0  0  0  0  0  0
   16.2750   -0.0976    0.0000 H   0  0  0  0  0  0  0  0  0  0  0  0
   15.8769    0.6836    0.0000 H   0  0  0  0  0  0  0  0  0  0  0  0
    3.4396    1.5049    0.0000 H   0  0  0  0  0  0  0  0  0  0  0  0
    2.6600    1.6706    0.0000 H   0  0  0  0  0  0  0  0  0  0  0  0
    1.8084    1.4038    0.0000 H   0  0  0  0  0  0  0  0  0  0  0  0
    1.4103    0.6226    0.0000 H   0  0  0  0  0  0  0  0  0  0  0  0
    2.1916    0.2245    0.0000 H   0  0  0  0  0  0  0  0  0  0  0  0
  1 10  1  0  0  0  0
  1 12  1  0  0  0  0
 14  2  1  6  0  0  0
  2 39  1  0  0  0  0
 16  3  1  1  0  0  0
  3 41  1  0  0  0  0
  4 18  1  0  0  0  0
  4 42  1  0  0  0  0
  5 19  1  0  0  0  0
  5 22  1  0  0  0  0
  6 20  1  0  0  0  0
  6 43  1  0  0  0  0
  7 19  2  0  0  0  0
  8 21  1  0  0  0  0
  8 24  1  0  0  0  0
  9 21  2  0  0  0  0
 10 11  1  0  0  0  0
 10 14  1  0  0  0  0
 10 26  1  1  0  0  0
 11 13  1  0  0  0  0
 11 27  1  0  0  0  0
 11 28  1  0  0  0  0
 12 13  1  0  0  0  0
 12 16  1  0  0  0  0
 12 29  1  1  0  0  0
 13 30  1  0  0  0  0
 13 31  1  0  0  0  0
 14 15  1  0  0  0  0
 14 32  1  0  0  0  0
 15 17  1  0  0  0  0
 15 33  1  0  0  0  0
 15 34  1  0  0  0  0
 16 19  1  0  0  0  0
 16 35  1  0  0  0  0
 17 18  1  0  0  0  0
 17 36  1  0  0  0  0
 17 37  1  0  0  0  0
 18 20  1  0  0  0  0
 18 38  1  0  0  0  0
 20 21  1  0  0  0  0
 20 40  1  0  0  0  0
 22 23  1  0  0  0  0
 22 44  1  0  0  0  0
 22 45  1  0  0  0  0
 23 46  1  0  0  0  0
 23 47  1  0  0  0  0
 23 48  1  0  0  0  0
 24 25  1  0  0  0  0
 24 49  1  0  0  0  0
 24 50  1  0  0  0  0
 25 51  1  0  0  0  0
 25 52  1  0  0  0  0
 25 53  1  0  0  0  0
M  END
> <PUBCHEM_COMPOUND_CID>
11199317

> <PUBCHEM_COMPOUND_CANONICALIZED>
1

> <PUBCHEM_CACTVS_COMPLEXITY>
428

> <PUBCHEM_CACTVS_HBOND_ACCEPTOR>
9

> <PUBCHEM_CACTVS_HBOND_DONOR>
4

> <PUBCHEM_CACTVS_ROTATABLE_BOND>
12

> <PUBCHEM_CACTVS_SUBSKEYS>
AAADceB4PAAAAAAAAAAAAAAAAAAAASAAAAAAAAAAAAAAAAAAAAAAGgAACAAACBSggAICCAAABgAIAACQCAIAAAAAAAAAAAFAAAABEBYAAAACQAAFIAADAAHI6KyAAAAAAAAAAAAAAAAAAAAAAAAAAAAAAA==

> <PUBCHEM_IUPAC_OPENEYE_NAME>
ethyl (6R)-6-[(2S,5R)-5-[(1S)-2-ethoxy-1-hydroxy-2-oxo-ethyl]tetrahydrofuran-2-yl]-2,3,6-trihydroxy-hexanoate

> <PUBCHEM_IUPAC_CAS_NAME>
(6R)-6-[(2S,5R)-5-[(1S)-2-ethoxy-1-hydroxy-2-oxoethyl]-2-oxolanyl]-2,3,6-trihydroxyhexanoic acid ethyl ester

> <PUBCHEM_IUPAC_NAME_MARKUP>
ethyl (6<I>R</I>)-6-[(2<I>S</I>,5<I>R</I>)-5-[(1<I>S</I>)-2-ethoxy-1-hydroxy-2-oxoethyl]oxolan-2-yl]-2,3,6-trihydroxyhexanoate

> <PUBCHEM_IUPAC_NAME>
ethyl (6R)-6-[(2S,5R)-5-[(1S)-2-ethoxy-1-hydroxy-2-oxoethyl]oxolan-2-yl]-2,3,6-trihydroxyhexanoate

> <PUBCHEM_IUPAC_SYSTEMATIC_NAME>
ethyl (6R)-6-[(2S,5R)-5-[(1S)-2-ethoxy-1-oxidanyl-2-oxidanylidene-ethyl]oxolan-2-yl]-2,3,6-tris(oxidanyl)hexanoate

> <PUBCHEM_IUPAC_TRADITIONAL_NAME>
(6R)-6-[(2S,5R)-5-[(1S)-2-ethoxy-1-hydroxy-2-keto-ethyl]tetrahydrofuran-2-yl]-2,3,6-trihydroxy-hexanoic acid ethyl ester

> <PUBCHEM_IUPAC_INCHI>
InChI=1S/C16H28O9/c1-3-23-15(21)13(19)10(18)6-5-9(17)11-7-8-12(25-11)14(20)16(22)24-4-2/h9-14,17-20H,3-8H2,1-2H3/t9-,10?,11+,12-,13?,14+/m1/s1

> <PUBCHEM_IUPAC_INCHIKEY>
AWGPTDWSWVFEPZ-OZNCHRPVSA-N

> <PUBCHEM_XLOGP3_AA>
-0.5

> <PUBCHEM_EXACT_MASS>
364.17333247

> <PUBCHEM_MOLECULAR_FORMULA>
C16H28O9

> <PUBCHEM_MOLECULAR_WEIGHT>
364.39

> <PUBCHEM_OPENEYE_CAN_SMILES>
CCOC(=O)C(C1CCC(O1)C(CCC(C(C(=O)OCC)O)O)O)O

> <PUBCHEM_OPENEYE_ISO_SMILES>
CCOC(=O)[C@H]([C@H]1CC[C@H](O1)[C@@H](CCC(C(C(=O)OCC)O)O)O)O

> <PUBCHEM_CACTVS_TPSA>
143

> <PUBCHEM_MONOISOTOPIC_WEIGHT>
364.17333247

> <PUBCHEM_TOTAL_CHARGE>
0

> <PUBCHEM_HEAVY_ATOM_COUNT>
25

> <PUBCHEM_ATOM_DEF_STEREO_COUNT>
4

> <PUBCHEM_ATOM_UDEF_STEREO_COUNT>
2

> <PUBCHEM_BOND_DEF_STEREO_COUNT>
0

> <PUBCHEM_BOND_UDEF_STEREO_COUNT>
0

> <PUBCHEM_ISOTOPIC_ATOM_COUNT>
0

> <PUBCHEM_COMPONENT_COUNT>
1

> <PUBCHEM_CACTVS_TAUTO_COUNT>
-1

> <PUBCHEM_COORDINATE_TYPE>
1
5
255

> <PUBCHEM_BONDANNOTATIONS>
10  26  5
12  29  5
14  2  6
16  3  5
18  4  3
20  6  3

$$$$
