 
  -OEChem-10192103432D

 63 62  0     1  0  0  0  0  0999 V2000
    5.7690   -3.7326    0.0000 O   0  0  0  0  0  0  0  0  0  0  0  0
    6.0010    5.7937    0.0000 O   0  0  0  0  0  0  0  0  0  0  0  0
    2.5369    5.7937    0.0000 O   0  0  0  0  0  0  0  0  0  0  0  0
    4.2690    7.5258    0.0000 O   0  0  0  0  0  0  0  0  0  0  0  0
    5.1350    7.2937    0.0000 O   0  0  0  0  0  0  0  0  0  0  0  0
    3.4030    4.2937    0.0000 O   0  0  0  0  0  0  0  0  0  0  0  0
    2.7690    6.6597    0.0000 O   0  0  0  0  0  0  0  0  0  0  0  0
    4.2690   -1.1345    0.0000 C   0  0  0  0  0  0  0  0  0  0  0  0
    4.7690   -0.2685    0.0000 C   0  0  0  0  0  0  0  0  0  0  0  0
    4.7690   -2.0005    0.0000 C   0  0  0  0  0  0  0  0  0  0  0  0
    4.2690    0.5976    0.0000 C   0  0  0  0  0  0  0  0  0  0  0  0
    4.2690   -2.8665    0.0000 C   0  0  0  0  0  0  0  0  0  0  0  0
    4.7690    1.4636    0.0000 C   0  0  0  0  0  0  0  0  0  0  0  0
    4.2690    2.3296    0.0000 C   0  0  0  0  0  0  0  0  0  0  0  0
    4.7690   -3.7326    0.0000 C   0  0  3  0  0  0  0  0  0  0  0  0
    4.7690    3.1956    0.0000 C   0  0  0  0  0  0  0  0  0  0  0  0
    4.2690   -4.5986    0.0000 C   0  0  0  0  0  0  0  0  0  0  0  0
    4.2690    4.0617    0.0000 C   0  0  0  0  0  0  0  0  0  0  0  0
    4.7690    4.9277    0.0000 C   0  0  0  0  0  0  0  0  0  0  0  0
    4.7690   -5.4646    0.0000 C   0  0  0  0  0  0  0  0  0  0  0  0
    4.2690    5.7937    0.0000 C   0  0  0  0  0  0  0  0  0  0  0  0
    4.2690   -6.3306    0.0000 C   0  0  0  0  0  0  0  0  0  0  0  0
    4.7690   -7.1967    0.0000 C   0  0  0  0  0  0  0  0  0  0  0  0
    5.1350    6.2937    0.0000 C   0  0  0  0  0  0  0  0  0  0  0  0
    3.4030    5.2937    0.0000 C   0  0  0  0  0  0  0  0  0  0  0  0
    3.7690    6.6597    0.0000 C   0  0  0  0  0  0  0  0  0  0  0  0
    4.2690   -8.0627    0.0000 C   0  0  0  0  0  0  0  0  0  0  0  0
    3.7940   -0.7360    0.0000 H   0  0  0  0  0  0  0  0  0  0  0  0
    3.7940   -1.5330    0.0000 H   0  0  0  0  0  0  0  0  0  0  0  0
    5.2439   -0.6670    0.0000 H   0  0  0  0  0  0  0  0  0  0  0  0
    5.2439    0.1301    0.0000 H   0  0  0  0  0  0  0  0  0  0  0  0
    5.2439   -2.3990    0.0000 H   0  0  0  0  0  0  0  0  0  0  0  0
    5.2439   -1.6020    0.0000 H   0  0  0  0  0  0  0  0  0  0  0  0
    3.7940    0.9961    0.0000 H   0  0  0  0  0  0  0  0  0  0  0  0
    3.7940    0.1990    0.0000 H   0  0  0  0  0  0  0  0  0  0  0  0
    3.7940   -2.4680    0.0000 H   0  0  0  0  0  0  0  0  0  0  0  0
    3.7940   -3.2651    0.0000 H   0  0  0  0  0  0  0  0  0  0  0  0
    5.2439    1.0650    0.0000 H   0  0  0  0  0  0  0  0  0  0  0  0
    5.2439    1.8621    0.0000 H   0  0  0  0  0  0  0  0  0  0  0  0
    5.0790   -4.2695    0.0000 H   0  0  0  0  0  0  0  0  0  0  0  0
    3.7940    2.7281    0.0000 H   0  0  0  0  0  0  0  0  0  0  0  0
    3.7940    1.9311    0.0000 H   0  0  0  0  0  0  0  0  0  0  0  0
    5.2439    2.7971    0.0000 H   0  0  0  0  0  0  0  0  0  0  0  0
    5.2439    3.5942    0.0000 H   0  0  0  0  0  0  0  0  0  0  0  0
    3.7940   -4.2001    0.0000 H   0  0  0  0  0  0  0  0  0  0  0  0
    3.7940   -4.9971    0.0000 H   0  0  0  0  0  0  0  0  0  0  0  0
    3.7940    4.4602    0.0000 H   0  0  0  0  0  0  0  0  0  0  0  0
    3.7940    3.6631    0.0000 H   0  0  0  0  0  0  0  0  0  0  0  0
    5.2439    4.5292    0.0000 H   0  0  0  0  0  0  0  0  0  0  0  0
    5.2439    5.3262    0.0000 H   0  0  0  0  0  0  0  0  0  0  0  0
    5.2439   -5.8632    0.0000 H   0  0  0  0  0  0  0  0  0  0  0  0
    5.2439   -5.0661    0.0000 H   0  0  0  0  0  0  0  0  0  0  0  0
    3.7940   -5.9321    0.0000 H   0  0  0  0  0  0  0  0  0  0  0  0
    3.7940   -6.7292    0.0000 H   0  0  0  0  0  0  0  0  0  0  0  0
    5.2439   -7.5952    0.0000 H   0  0  0  0  0  0  0  0  0  0  0  0
    5.2439   -6.7981    0.0000 H   0  0  0  0  0  0  0  0  0  0  0  0
    6.0790   -4.2695    0.0000 H   0  0  0  0  0  0  0  0  0  0  0  0
    3.7320   -7.7527    0.0000 H   0  0  0  0  0  0  0  0  0  0  0  0
    3.9590   -8.5996    0.0000 H   0  0  0  0  0  0  0  0  0  0  0  0
    4.8059   -8.3727    0.0000 H   0  0  0  0  0  0  0  0  0  0  0  0
    6.5380    6.1037    0.0000 H   0  0  0  0  0  0  0  0  0  0  0  0
    2.0000    5.4837    0.0000 H   0  0  0  0  0  0  0  0  0  0  0  0
    3.9590    8.0627    0.0000 H   0  0  0  0  0  0  0  0  0  0  0  0
  1 15  1  0  0  0  0
  1 57  1  0  0  0  0
  2 24  1  0  0  0  0
  2 61  1  0  0  0  0
  3 25  1  0  0  0  0
  3 62  1  0  0  0  0
  4 26  1  0  0  0  0
  4 63  1  0  0  0  0
  5 24  2  0  0  0  0
  6 25  2  0  0  0  0
  7 26  2  0  0  0  0
  8  9  1  0  0  0  0
  8 10  1  0  0  0  0
  8 28  1  0  0  0  0
  8 29  1  0  0  0  0
  9 11  1  0  0  0  0
  9 30  1  0  0  0  0
  9 31  1  0  0  0  0
 10 12  1  0  0  0  0
 10 32  1  0  0  0  0
 10 33  1  0  0  0  0
 11 13  1  0  0  0  0
 11 34  1  0  0  0  0
 11 35  1  0  0  0  0
 12 15  1  0  0  0  0
 12 36  1  0  0  0  0
 12 37  1  0  0  0  0
 13 14  1  0  0  0  0
 13 38  1  0  0  0  0
 13 39  1  0  0  0  0
 14 16  1  0  0  0  0
 14 41  1  0  0  0  0
 14 42  1  0  0  0  0
 15 17  1  0  0  0  0
 15 40  1  0  0  0  0
 16 18  1  0  0  0  0
 16 43  1  0  0  0  0
 16 44  1  0  0  0  0
 17 20  1  0  0  0  0
 17 45  1  0  0  0  0
 17 46  1  0  0  0  0
 18 19  1  0  0  0  0
 18 47  1  0  0  0  0
 18 48  1  0  0  0  0
 19 21  1  0  0  0  0
 19 49  1  0  0  0  0
 19 50  1  0  0  0  0
 20 22  1  0  0  0  0
 20 51  1  0  0  0  0
 20 52  1  0  0  0  0
 21 24  1  0  0  0  0
 21 25  1  0  0  0  0
 21 26  1  0  0  0  0
 22 23  1  0  0  0  0
 22 53  1  0  0  0  0
 22 54  1  0  0  0  0
 23 27  1  0  0  0  0
 23 55  1  0  0  0  0
 23 56  1  0  0  0  0
 27 58  1  0  0  0  0
 27 59  1  0  0  0  0
 27 60  1  0  0  0  0
M  END
> <PUBCHEM_COMPOUND_CID>
57104312

> <PUBCHEM_COMPOUND_CANONICALIZED>
1

> <PUBCHEM_CACTVS_COMPLEXITY>
412

> <PUBCHEM_CACTVS_HBOND_ACCEPTOR>
7

> <PUBCHEM_CACTVS_HBOND_DONOR>
4

> <PUBCHEM_CACTVS_ROTATABLE_BOND>
18

> <PUBCHEM_CACTVS_SUBSKEYS>
AAADcfB4OAAAAAAAAAAAAAAAAAAAAAAAAAAAAAAAAAAAAAAAAAAAGgAACAAADhSggAICCAAAAgAIAACQCAAAAAAAAAAAAAEAAAAAEBYIAAAAQAAFIAAAAAGIyOCNAAAAAAAAAAAAAAAAAAAAAAAAAAAAAA==

> <PUBCHEM_IUPAC_OPENEYE_NAME>
12-hydroxyheptadecane-1,1,1-tricarboxylic acid

> <PUBCHEM_IUPAC_CAS_NAME>
12-hydroxyheptadecane-1,1,1-tricarboxylic acid

> <PUBCHEM_IUPAC_NAME_MARKUP>
12-hydroxyheptadecane-1,1,1-tricarboxylic acid

> <PUBCHEM_IUPAC_NAME>
12-hydroxyheptadecane-1,1,1-tricarboxylic acid

> <PUBCHEM_IUPAC_SYSTEMATIC_NAME>
12-oxidanylheptadecane-1,1,1-tricarboxylic acid

> <PUBCHEM_IUPAC_TRADITIONAL_NAME>
12-hydroxyheptadecane-1,1,1-tricarboxylic acid

> <PUBCHEM_IUPAC_INCHI>
InChI=1S/C20H36O7/c1-2-3-10-13-16(21)14-11-8-6-4-5-7-9-12-15-20(17(22)23,18(24)25)19(26)27/h16,21H,2-15H2,1H3,(H,22,23)(H,24,25)(H,26,27)

> <PUBCHEM_IUPAC_INCHIKEY>
HBKVDGSAXHDFAS-UHFFFAOYSA-N

> <PUBCHEM_XLOGP3_AA>
5.7

> <PUBCHEM_EXACT_MASS>
388.24610348

> <PUBCHEM_MOLECULAR_FORMULA>
C20H36O7

> <PUBCHEM_MOLECULAR_WEIGHT>
388.5

> <PUBCHEM_OPENEYE_CAN_SMILES>
CCCCCC(CCCCCCCCCCC(C(=O)O)(C(=O)O)C(=O)O)O

> <PUBCHEM_OPENEYE_ISO_SMILES>
CCCCCC(CCCCCCCCCCC(C(=O)O)(C(=O)O)C(=O)O)O

> <PUBCHEM_CACTVS_TPSA>
132

> <PUBCHEM_MONOISOTOPIC_WEIGHT>
388.24610348

> <PUBCHEM_TOTAL_CHARGE>
0

> <PUBCHEM_HEAVY_ATOM_COUNT>
27

> <PUBCHEM_ATOM_DEF_STEREO_COUNT>
0

> <PUBCHEM_ATOM_UDEF_STEREO_COUNT>
1

> <PUBCHEM_BOND_DEF_STEREO_COUNT>
0

> <PUBCHEM_BOND_UDEF_STEREO_COUNT>
0

> <PUBCHEM_ISOTOPIC_ATOM_COUNT>
0

> <PUBCHEM_COMPONENT_COUNT>
1

> <PUBCHEM_CACTVS_TAUTO_COUNT>
-1

> <PUBCHEM_COORDINATE_TYPE>
1
5
255

> <PUBCHEM_BONDANNOTATIONS>
15  1  3

$$$$
