 
  -OEChem-10192103342D

 67 75  0     0  0  0  0  0  0999 V2000
    9.1333   -2.3351    0.0000 O   0  0  0  0  0  0  0  0  0  0  0  0
    2.7272    0.7499    0.0000 O   0  0  0  0  0  0  0  0  0  0  0  0
    9.1559    1.7757    0.0000 O   0  0  0  0  0  0  0  0  0  0  0  0
    5.9271    3.3306    0.0000 O   0  0  0  0  0  0  0  0  0  0  0  0
    9.9597   -1.1476    0.0000 O   0  0  0  0  0  0  0  0  0  0  0  0
    3.1404    2.1364    0.0000 O   0  0  0  0  0  0  0  0  0  0  0  0
    8.4322   -3.8243    0.0000 O   0  0  0  0  0  0  0  0  0  0  0  0
    2.0000   -0.7267    0.0000 O   0  0  0  0  0  0  0  0  0  0  0  0
    6.4620   -0.8408    0.0000 C   0  0  0  0  0  0  0  0  0  0  0  0
    5.5610   -0.4069    0.0000 C   0  0  0  0  0  0  0  0  0  0  0  0
    7.3630   -0.4069    0.0000 C   0  0  0  0  0  0  0  0  0  0  0  0
    5.3385    0.5680    0.0000 C   0  0  0  0  0  0  0  0  0  0  0  0
    6.9620    1.3498    0.0000 C   0  0  0  0  0  0  0  0  0  0  0  0
    6.5558   -1.8782    0.0000 C   0  0  0  0  0  0  0  0  0  0  0  0
    4.6914   -0.9804    0.0000 C   0  0  0  0  0  0  0  0  0  0  0  0
    7.5855    0.5680    0.0000 C   0  0  0  0  0  0  0  0  0  0  0  0
    5.9620    1.3498    0.0000 C   0  0  0  0  0  0  0  0  0  0  0  0
    5.6998   -2.4716    0.0000 C   0  0  0  0  0  0  0  0  0  0  0  0
    4.7613   -2.0196    0.0000 C   0  0  0  0  0  0  0  0  0  0  0  0
    8.2313   -0.8703    0.0000 C   0  0  0  0  0  0  0  0  0  0  0  0
    4.4348    0.9580    0.0000 C   0  0  0  0  0  0  0  0  0  0  0  0
    7.4132   -2.3615    0.0000 C   0  0  0  0  0  0  0  0  0  0  0  0
    3.7790   -0.6114    0.0000 C   0  0  0  0  0  0  0  0  0  0  0  0
    8.2566   -1.8542    0.0000 C   0  0  0  0  0  0  0  0  0  0  0  0
    3.6498    0.3643    0.0000 C   0  0  0  0  0  0  0  0  0  0  0  0
    5.7235   -3.5215    0.0000 C   0  0  0  0  0  0  0  0  0  0  0  0
    3.9256   -2.6557    0.0000 C   0  0  0  0  0  0  0  0  0  0  0  0
    7.3959    2.2508    0.0000 C   0  0  0  0  0  0  0  0  0  0  0  0
    8.4728    1.0454    0.0000 C   0  0  0  0  0  0  0  0  0  0  0  0
    5.7820    2.3412    0.0000 C   0  0  0  0  0  0  0  0  0  0  0  0
    9.1776   -0.5244    0.0000 C   0  0  0  0  0  0  0  0  0  0  0  0
    4.1153    1.9136    0.0000 C   0  0  0  0  0  0  0  0  0  0  0  0
    7.5240   -3.4058    0.0000 C   0  0  0  0  0  0  0  0  0  0  0  0
    2.8934   -1.1759    0.0000 C   0  0  0  0  0  0  0  0  0  0  0  0
    6.6582   -4.0002    0.0000 C   0  0  0  0  0  0  0  0  0  0  0  0
    2.9686   -2.2234    0.0000 C   0  0  0  0  0  0  0  0  0  0  0  0
    9.3037    0.4753    0.0000 C   0  0  0  0  0  0  0  0  0  0  0  0
    4.8183    2.6354    0.0000 C   0  0  0  0  0  0  0  0  0  0  0  0
    4.8762   -4.0527    0.0000 C   0  0  0  0  0  0  0  0  0  0  0  0
    4.0385   -3.6493    0.0000 C   0  0  0  0  0  0  0  0  0  0  0  0
    8.3931    2.3255    0.0000 C   0  0  0  0  0  0  0  0  0  0  0  0
    6.8326    3.0770    0.0000 C   0  0  0  0  0  0  0  0  0  0  0  0
    8.8270    3.2265    0.0000 C   0  0  0  0  0  0  0  0  0  0  0  0
    7.2664    3.9780    0.0000 C   0  0  0  0  0  0  0  0  0  0  0  0
    8.2636    4.0527    0.0000 C   0  0  0  0  0  0  0  0  0  0  0  0
    7.5781    1.4192    0.0000 H   0  0  0  0  0  0  0  0  0  0  0  0
    6.6980   -4.6189    0.0000 H   0  0  0  0  0  0  0  0  0  0  0  0
    2.4600   -2.5781    0.0000 H   0  0  0  0  0  0  0  0  0  0  0  0
    9.8693    0.7293    0.0000 H   0  0  0  0  0  0  0  0  0  0  0  0
    4.6642    3.2360    0.0000 H   0  0  0  0  0  0  0  0  0  0  0  0
    4.5469   -3.5274    0.0000 H   0  0  0  0  0  0  0  0  0  0  0  0
    4.3510   -4.3821    0.0000 H   0  0  0  0  0  0  0  0  0  0  0  0
    5.2056   -4.5780    0.0000 H   0  0  0  0  0  0  0  0  0  0  0  0
    3.4225   -3.7193    0.0000 H   0  0  0  0  0  0  0  0  0  0  0  0
    4.1085   -4.2654    0.0000 H   0  0  0  0  0  0  0  0  0  0  0  0
    4.6546   -3.5793    0.0000 H   0  0  0  0  0  0  0  0  0  0  0  0
    8.7423    1.8133    0.0000 H   0  0  0  0  0  0  0  0  0  0  0  0
    6.2143    3.0307    0.0000 H   0  0  0  0  0  0  0  0  0  0  0  0
    9.1468   -2.9550    0.0000 H   0  0  0  0  0  0  0  0  0  0  0  0
    2.2341    0.3740    0.0000 H   0  0  0  0  0  0  0  0  0  0  0  0
    9.7598    1.6353    0.0000 H   0  0  0  0  0  0  0  0  0  0  0  0
    5.4408    3.7153    0.0000 H   0  0  0  0  0  0  0  0  0  0  0  0
   10.5367   -0.9209    0.0000 H   0  0  0  0  0  0  0  0  0  0  0  0
    2.9578    2.7289    0.0000 H   0  0  0  0  0  0  0  0  0  0  0  0
    9.4452    3.2728    0.0000 H   0  0  0  0  0  0  0  0  0  0  0  0
    6.9172    4.4903    0.0000 H   0  0  0  0  0  0  0  0  0  0  0  0
    8.5326    4.6113    0.0000 H   0  0  0  0  0  0  0  0  0  0  0  0
  1 24  1  0  0  0  0
  1 59  1  0  0  0  0
  2 25  1  0  0  0  0
  2 60  1  0  0  0  0
  3 29  1  0  0  0  0
  3 61  1  0  0  0  0
  4 30  1  0  0  0  0
  4 62  1  0  0  0  0
  5 31  1  0  0  0  0
  5 63  1  0  0  0  0
  6 32  1  0  0  0  0
  6 64  1  0  0  0  0
  7 33  2  0  0  0  0
  8 34  2  0  0  0  0
  9 10  1  0  0  0  0
  9 11  1  0  0  0  0
  9 14  2  0  0  0  0
 10 12  1  0  0  0  0
 10 15  2  0  0  0  0
 11 16  1  0  0  0  0
 11 20  2  0  0  0  0
 12 17  1  0  0  0  0
 12 21  2  0  0  0  0
 13 16  1  0  0  0  0
 13 17  1  0  0  0  0
 13 28  1  0  0  0  0
 13 46  1  0  0  0  0
 14 18  1  0  0  0  0
 14 22  1  0  0  0  0
 15 19  1  0  0  0  0
 15 23  1  0  0  0  0
 16 29  2  0  0  0  0
 17 30  2  0  0  0  0
 18 19  2  0  0  0  0
 18 26  1  0  0  0  0
 19 27  1  0  0  0  0
 20 24  1  0  0  0  0
 20 31  1  0  0  0  0
 21 25  1  0  0  0  0
 21 32  1  0  0  0  0
 22 24  2  0  0  0  0
 22 33  1  0  0  0  0
 23 25  2  0  0  0  0
 23 34  1  0  0  0  0
 26 35  2  0  0  0  0
 26 39  1  0  0  0  0
 27 36  2  0  0  0  0
 27 40  1  0  0  0  0
 28 41  2  0  0  0  0
 28 42  1  0  0  0  0
 29 37  1  0  0  0  0
 30 38  1  0  0  0  0
 31 37  2  0  0  0  0
 32 38  2  0  0  0  0
 33 35  1  0  0  0  0
 34 36  1  0  0  0  0
 35 47  1  0  0  0  0
 36 48  1  0  0  0  0
 37 49  1  0  0  0  0
 38 50  1  0  0  0  0
 39 51  1  0  0  0  0
 39 52  1  0  0  0  0
 39 53  1  0  0  0  0
 40 54  1  0  0  0  0
 40 55  1  0  0  0  0
 40 56  1  0  0  0  0
 41 43  1  0  0  0  0
 41 57  1  0  0  0  0
 42 44  2  0  0  0  0
 42 58  1  0  0  0  0
 43 45  2  0  0  0  0
 43 65  1  0  0  0  0
 44 45  1  0  0  0  0
 44 66  1  0  0  0  0
 45 67  1  0  0  0  0
M  END
> <PUBCHEM_COMPOUND_CID>
136815092

> <PUBCHEM_COMPOUND_CANONICALIZED>
1

> <PUBCHEM_CACTVS_COMPLEXITY>
1260

> <PUBCHEM_CACTVS_HBOND_ACCEPTOR>
8

> <PUBCHEM_CACTVS_HBOND_DONOR>
6

> <PUBCHEM_CACTVS_ROTATABLE_BOND>
1

> <PUBCHEM_CACTVS_SUBSKEYS>
AAADceB8PAAAAAAAAAAAAAAAAAAAAAAAAAAwYMGDBgAAAADBVAAAGgAACAAADQSAmAAyBsAAAgCIAqBSAAACAAAkIAAIiAEGCMgIJzaCFRKAcUAl4BUImQeI7PTO4AADCAAYAADAAAYQADAAAAAAAAAAAA==

> <PUBCHEM_IUPAC_OPENEYE_NAME>
9,11,13,17,19,21-hexahydroxy-5,25-dimethyl-15-phenyl-octacyclo[14.11.1.12,10.03,8.04,26.020,28.022,27.014,29]nonacosa-1(27),2,4(26),5,8,10(29),11,13,16,18,20(28),21,24-tridecaene-7,23-dione

> <PUBCHEM_IUPAC_CAS_NAME>
9,11,13,17,19,21-hexahydroxy-5,25-dimethyl-15-phenyloctacyclo[14.11.1.12,10.03,8.04,26.020,28.022,27.014,29]nonacosa-1(27),2,4(26),5,8,10(29),11,13,16,18,20(28),21,24-tridecaene-7,23-dione

> <PUBCHEM_IUPAC_NAME_MARKUP>
9,11,13,17,19,21-hexahydroxy-5,25-dimethyl-15-phenyloctacyclo[14.11.1.1<SUP>2,10</SUP>.0<SUP>3,8</SUP>.0<SUP>4,26</SUP>.0<SUP>20,28</SUP>.0<SUP>22,27</SUP>.0<SUP>14,29</SUP>]nonacosa-1(27),2,4(26),5,8,10(29),11,13,16,18,20(28),21,24-tridecaene-7,23-dione

> <PUBCHEM_IUPAC_NAME>
9,11,13,17,19,21-hexahydroxy-5,25-dimethyl-15-phenyloctacyclo[14.11.1.12,10.03,8.04,26.020,28.022,27.014,29]nonacosa-1(27),2,4(26),5,8,10(29),11,13,16,18,20(28),21,24-tridecaene-7,23-dione

> <PUBCHEM_IUPAC_SYSTEMATIC_NAME>
5,25-dimethyl-9,11,13,17,19,21-hexakis(oxidanyl)-15-phenyl-octacyclo[14.11.1.12,10.03,8.04,26.020,28.022,27.014,29]nonacosa-1(27),2,4(26),5,8,10(29),11,13,16,18,20(28),21,24-tridecaene-7,23-dione

> <PUBCHEM_IUPAC_TRADITIONAL_NAME>
9,11,13,17,19,21-hexahydroxy-5,25-dimethyl-15-phenyl-octacyclo[14.11.1.12,10.03,8.04,26.020,28.022,27.014,29]nonacosa-1(27),2,4(26),5,8,10(29),11,13,16,18,20(28),21,24-tridecaene-7,23-quinone

> <PUBCHEM_IUPAC_INCHI>
InChI=1S/C37H22O8/c1-12-8-15(38)26-30-21(12)22-13(2)9-16(39)27-31(22)35-33-25(18(41)11-20(43)29(33)37(27)45)23(14-6-4-3-5-7-14)24-17(40)10-19(42)28(36(26)44)32(24)34(30)35/h3-11,23,40-45H,1-2H3

> <PUBCHEM_IUPAC_INCHIKEY>
SRELWHOCYBSVDE-UHFFFAOYSA-N

> <PUBCHEM_XLOGP3_AA>
7.2

> <PUBCHEM_EXACT_MASS>
594.13146766

> <PUBCHEM_MOLECULAR_FORMULA>
C37H22O8

> <PUBCHEM_MOLECULAR_WEIGHT>
594.6

> <PUBCHEM_OPENEYE_CAN_SMILES>
CC1=CC(=O)C2=C(C3=C4C(=C(C=C3O)O)C(C5=C(C=C(C6=C5C7=C8C(=C1C2=C47)C(=CC(=O)C8=C6O)C)O)O)C9=CC=CC=C9)O

> <PUBCHEM_OPENEYE_ISO_SMILES>
CC1=CC(=O)C2=C(C3=C4C(=C(C=C3O)O)C(C5=C(C=C(C6=C5C7=C8C(=C1C2=C47)C(=CC(=O)C8=C6O)C)O)O)C9=CC=CC=C9)O

> <PUBCHEM_CACTVS_TPSA>
156

> <PUBCHEM_MONOISOTOPIC_WEIGHT>
594.13146766

> <PUBCHEM_TOTAL_CHARGE>
0

> <PUBCHEM_HEAVY_ATOM_COUNT>
45

> <PUBCHEM_ATOM_DEF_STEREO_COUNT>
0

> <PUBCHEM_ATOM_UDEF_STEREO_COUNT>
0

> <PUBCHEM_BOND_DEF_STEREO_COUNT>
0

> <PUBCHEM_BOND_UDEF_STEREO_COUNT>
0

> <PUBCHEM_ISOTOPIC_ATOM_COUNT>
0

> <PUBCHEM_COMPONENT_COUNT>
1

> <PUBCHEM_CACTVS_TAUTO_COUNT>
-1

> <PUBCHEM_COORDINATE_TYPE>
1
5
255

> <PUBCHEM_BONDANNOTATIONS>
10  12  8
10  15  8
11  16  8
11  20  8
12  17  8
12  21  8
14  18  8
14  22  8
15  19  8
15  23  8
16  29  8
17  30  8
18  19  8
18  26  8
19  27  8
20  24  8
20  31  8
21  25  8
21  32  8
22  24  8
22  33  8
23  25  8
23  34  8
26  35  8
27  36  8
28  41  8
28  42  8
29  37  8
30  38  8
31  37  8
32  38  8
33  35  8
34  36  8
41  43  8
42  44  8
43  45  8
44  45  8
9  10  8
9  11  8
9  14  8

$$$$
