 
  -OEChem-10192104012D

 55 57  0     1  0  0  0  0  0999 V2000
    6.0010    0.9720    0.0000 O   0  0  0  0  0  0  0  0  0  0  0  0
    6.8671   -1.5280    0.0000 O   0  0  0  0  0  0  0  0  0  0  0  0
    5.1350   -1.5280    0.0000 O   0  0  0  0  0  0  0  0  0  0  0  0
    6.5010    4.8380    0.0000 O   0  0  0  0  0  0  0  0  0  0  0  0
    8.5991   -0.5280    0.0000 O   0  0  0  0  0  0  0  0  0  0  0  0
    8.5991    1.4720    0.0000 O   0  0  0  0  0  0  0  0  0  0  0  0
    6.8671   -3.5280    0.0000 O   0  0  0  0  0  0  0  0  0  0  0  0
    5.1350   -4.5280    0.0000 O   0  0  0  0  0  0  0  0  0  0  0  0
    3.4030   -3.5280    0.0000 O   0  0  0  0  0  0  0  0  0  0  0  0
    4.2690   -0.0280    0.0000 O   0  0  0  0  0  0  0  0  0  0  0  0
    2.5369   -2.0280    0.0000 O   0  0  0  0  0  0  0  0  0  0  0  0
    6.8671   -0.5280    0.0000 C   0  0  1  0  0  0  0  0  0  0  0  0
    6.8671    1.4720    0.0000 C   0  0  2  0  0  0  0  0  0  0  0  0
    7.7331   -0.0280    0.0000 C   0  0  1  0  0  0  0  0  0  0  0  0
    7.7331    0.9720    0.0000 C   0  0  1  0  0  0  0  0  0  0  0  0
    6.0010   -0.0280    0.0000 C   0  0  1  0  0  0  0  0  0  0  0  0
    6.8671    2.4720    0.0000 C   0  0  0  0  0  0  0  0  0  0  0  0
    6.0010   -2.0280    0.0000 C   0  0  2  0  0  0  0  0  0  0  0  0
    6.0010    2.9720    0.0000 C   0  0  0  0  0  0  0  0  0  0  0  0
    6.0010    3.9720    0.0000 C   0  0  3  0  0  0  0  0  0  0  0  0
    6.0010   -3.0280    0.0000 C   0  0  1  0  0  0  0  0  0  0  0  0
    5.1350   -3.5280    0.0000 C   0  0  2  0  0  0  0  0  0  0  0  0
    4.2690   -3.0280    0.0000 C   0  0  1  0  0  0  0  0  0  0  0  0
    4.2690   -2.0280    0.0000 C   0  0  1  0  0  0  0  0  0  0  0  0
    5.1350   -0.5280    0.0000 C   0  0  0  0  0  0  0  0  0  0  0  0
    5.5010    4.8380    0.0000 C   0  0  0  0  0  0  0  0  0  0  0  0
    3.4030   -1.5280    0.0000 C   0  0  0  0  0  0  0  0  0  0  0  0
    7.4040   -0.8380    0.0000 H   0  0  0  0  0  0  0  0  0  0  0  0
    6.3301    1.7820    0.0000 H   0  0  0  0  0  0  0  0  0  0  0  0
    7.7331   -0.6480    0.0000 H   0  0  0  0  0  0  0  0  0  0  0  0
    8.2700    0.6620    0.0000 H   0  0  0  0  0  0  0  0  0  0  0  0
    5.4641    0.2820    0.0000 H   0  0  0  0  0  0  0  0  0  0  0  0
    7.4776    2.3643    0.0000 H   0  0  0  0  0  0  0  0  0  0  0  0
    7.0791    3.0546    0.0000 H   0  0  0  0  0  0  0  0  0  0  0  0
    6.0010   -1.4080    0.0000 H   0  0  0  0  0  0  0  0  0  0  0  0
    5.3905    3.0796    0.0000 H   0  0  0  0  0  0  0  0  0  0  0  0
    5.7890    2.3894    0.0000 H   0  0  0  0  0  0  0  0  0  0  0  0
    6.0010   -3.6480    0.0000 H   0  0  0  0  0  0  0  0  0  0  0  0
    6.5999    3.8115    0.0000 H   0  0  0  0  0  0  0  0  0  0  0  0
    4.5981   -3.8380    0.0000 H   0  0  0  0  0  0  0  0  0  0  0  0
    4.2690   -3.6480    0.0000 H   0  0  0  0  0  0  0  0  0  0  0  0
    4.2690   -1.4080    0.0000 H   0  0  0  0  0  0  0  0  0  0  0  0
    4.7365   -1.0030    0.0000 H   0  0  0  0  0  0  0  0  0  0  0  0
    5.5335   -1.0030    0.0000 H   0  0  0  0  0  0  0  0  0  0  0  0
    5.3934    5.4486    0.0000 H   0  0  0  0  0  0  0  0  0  0  0  0
    4.9184    4.6260    0.0000 H   0  0  0  0  0  0  0  0  0  0  0  0
    9.1360   -0.2180    0.0000 H   0  0  0  0  0  0  0  0  0  0  0  0
    8.5991    2.0920    0.0000 H   0  0  0  0  0  0  0  0  0  0  0  0
    3.8015   -1.0531    0.0000 H   0  0  0  0  0  0  0  0  0  0  0  0
    3.0044   -1.0531    0.0000 H   0  0  0  0  0  0  0  0  0  0  0  0
    6.8671   -4.1480    0.0000 H   0  0  0  0  0  0  0  0  0  0  0  0
    4.5981   -4.8380    0.0000 H   0  0  0  0  0  0  0  0  0  0  0  0
    3.4030   -4.1480    0.0000 H   0  0  0  0  0  0  0  0  0  0  0  0
    4.2690    0.5920    0.0000 H   0  0  0  0  0  0  0  0  0  0  0  0
    2.0000   -1.7180    0.0000 H   0  0  0  0  0  0  0  0  0  0  0  0
  1 13  1  0  0  0  0
  1 16  1  0  0  0  0
 12  2  1  6  0  0  0
 18  2  1  1  0  0  0
  3 18  1  0  0  0  0
  3 24  1  0  0  0  0
  4 20  1  0  0  0  0
  4 26  1  0  0  0  0
 14  5  1  1  0  0  0
  5 47  1  0  0  0  0
 15  6  1  6  0  0  0
  6 48  1  0  0  0  0
 21  7  1  6  0  0  0
  7 51  1  0  0  0  0
 22  8  1  1  0  0  0
  8 52  1  0  0  0  0
 23  9  1  6  0  0  0
  9 53  1  0  0  0  0
 10 25  1  0  0  0  0
 10 54  1  0  0  0  0
 11 27  1  0  0  0  0
 11 55  1  0  0  0  0
 12 14  1  0  0  0  0
 12 16  1  0  0  0  0
 12 28  1  0  0  0  0
 13 15  1  0  0  0  0
 13 17  1  1  0  0  0
 13 29  1  0  0  0  0
 14 15  1  0  0  0  0
 14 30  1  0  0  0  0
 15 31  1  0  0  0  0
 16 25  1  1  0  0  0
 16 32  1  0  0  0  0
 17 19  1  0  0  0  0
 17 33  1  0  0  0  0
 17 34  1  0  0  0  0
 18 21  1  0  0  0  0
 18 35  1  0  0  0  0
 19 20  1  0  0  0  0
 19 36  1  0  0  0  0
 19 37  1  0  0  0  0
 20 26  1  0  0  0  0
 20 39  1  0  0  0  0
 21 22  1  0  0  0  0
 21 38  1  0  0  0  0
 22 23  1  0  0  0  0
 22 40  1  0  0  0  0
 23 24  1  0  0  0  0
 23 41  1  0  0  0  0
 24 27  1  1  0  0  0
 24 42  1  0  0  0  0
 25 43  1  0  0  0  0
 25 44  1  0  0  0  0
 26 45  1  0  0  0  0
 26 46  1  0  0  0  0
 27 49  1  0  0  0  0
 27 50  1  0  0  0  0
M  END
> <PUBCHEM_COMPOUND_CID>
100956329

> <PUBCHEM_COMPOUND_CANONICALIZED>
1

> <PUBCHEM_CACTVS_COMPLEXITY>
479

> <PUBCHEM_CACTVS_HBOND_ACCEPTOR>
11

> <PUBCHEM_CACTVS_HBOND_DONOR>
7

> <PUBCHEM_CACTVS_ROTATABLE_BOND>
7

> <PUBCHEM_CACTVS_SUBSKEYS>
AAADceB4PAAAAAAAAAAAAAAAEgAAAAAAAAAkSAAAAAAAAAAAAAAAGgAACAAACBSwgAMACAAABgAAAAAAAAAAAAAAAAAAAAAAAAAREAIAAAAiQAAFAAAHAAHA4KwAAAAAAAAAAAAAAAAAAAAAAAAAAAAAAA==

> <PUBCHEM_IUPAC_OPENEYE_NAME>
(2S,3R,4S,5S,6R)-2-[(2R,3S,4R,5R,6S)-4,5-dihydroxy-2-(hydroxymethyl)-6-[2-(oxiran-2-yl)ethyl]tetrahydropyran-3-yl]oxy-6-(hydroxymethyl)tetrahydropyran-3,4,5-triol

> <PUBCHEM_IUPAC_CAS_NAME>
(2S,3R,4S,5S,6R)-2-[[(2R,3S,4R,5R,6S)-4,5-dihydroxy-2-(hydroxymethyl)-6-[2-(2-oxiranyl)ethyl]-3-oxanyl]oxy]-6-(hydroxymethyl)oxane-3,4,5-triol

> <PUBCHEM_IUPAC_NAME_MARKUP>
(2<I>S</I>,3<I>R</I>,4<I>S</I>,5<I>S</I>,6<I>R</I>)-2-[(2<I>R</I>,3<I>S</I>,4<I>R</I>,5<I>R</I>,6<I>S</I>)-4,5-dihydroxy-2-(hydroxymethyl)-6-[2-(oxiran-2-yl)ethyl]oxan-3-yl]oxy-6-(hydroxymethyl)oxane-3,4,5-triol

> <PUBCHEM_IUPAC_NAME>
(2S,3R,4S,5S,6R)-2-[(2R,3S,4R,5R,6S)-4,5-dihydroxy-2-(hydroxymethyl)-6-[2-(oxiran-2-yl)ethyl]oxan-3-yl]oxy-6-(hydroxymethyl)oxane-3,4,5-triol

> <PUBCHEM_IUPAC_SYSTEMATIC_NAME>
(2R,3S,4S,5R,6S)-2-(hydroxymethyl)-6-[(2R,3S,4R,5R,6S)-2-(hydroxymethyl)-4,5-bis(oxidanyl)-6-[2-(oxiran-2-yl)ethyl]oxan-3-yl]oxy-oxane-3,4,5-triol

> <PUBCHEM_IUPAC_TRADITIONAL_NAME>
(2S,3R,4S,5S,6R)-2-[(2R,3S,4R,5R,6S)-4,5-dihydroxy-2-methylol-6-[2-(oxiran-2-yl)ethyl]tetrahydropyran-3-yl]oxy-6-methylol-tetrahydropyran-3,4,5-triol

> <PUBCHEM_IUPAC_INCHI>
InChI=1S/C16H28O11/c17-3-8-11(20)12(21)14(23)16(26-8)27-15-9(4-18)25-7(10(19)13(15)22)2-1-6-5-24-6/h6-23H,1-5H2/t6?,7-,8+,9+,10-,11+,12-,13+,14+,15+,16-/m0/s1

> <PUBCHEM_IUPAC_INCHIKEY>
OZEWDKRDCHRHBF-YVTSLIBLSA-N

> <PUBCHEM_XLOGP3_AA>
-3.7

> <PUBCHEM_EXACT_MASS>
396.16316171

> <PUBCHEM_MOLECULAR_FORMULA>
C16H28O11

> <PUBCHEM_MOLECULAR_WEIGHT>
396.39

> <PUBCHEM_OPENEYE_CAN_SMILES>
C1C(O1)CCC2C(C(C(C(O2)CO)OC3C(C(C(C(O3)CO)O)O)O)O)O

> <PUBCHEM_OPENEYE_ISO_SMILES>
C1C(O1)CC[C@H]2[C@@H]([C@H]([C@@H]([C@H](O2)CO)O[C@H]3[C@@H]([C@H]([C@@H]([C@H](O3)CO)O)O)O)O)O

> <PUBCHEM_CACTVS_TPSA>
182

> <PUBCHEM_MONOISOTOPIC_WEIGHT>
396.16316171

> <PUBCHEM_TOTAL_CHARGE>
0

> <PUBCHEM_HEAVY_ATOM_COUNT>
27

> <PUBCHEM_ATOM_DEF_STEREO_COUNT>
10

> <PUBCHEM_ATOM_UDEF_STEREO_COUNT>
1

> <PUBCHEM_BOND_DEF_STEREO_COUNT>
0

> <PUBCHEM_BOND_UDEF_STEREO_COUNT>
0

> <PUBCHEM_ISOTOPIC_ATOM_COUNT>
0

> <PUBCHEM_COMPONENT_COUNT>
1

> <PUBCHEM_CACTVS_TAUTO_COUNT>
-1

> <PUBCHEM_COORDINATE_TYPE>
1
5
255

> <PUBCHEM_BONDANNOTATIONS>
13  17  5
16  25  5
20  19  3
12  2  6
18  2  5
24  27  5
14  5  5
15  6  6
21  7  6
22  8  5
23  9  6

$$$$
