 
  -OEChem-10192104142D

 76 78  0     1  0  0  0  0  0999 V2000
    6.4092   -1.6974    0.0000 O   0  0  0  0  0  0  0  0  0  0  0  0
    7.7752   -0.3313    0.0000 O   0  0  0  0  0  0  0  0  0  0  0  0
    4.1110   -3.6256    0.0000 O   0  0  0  0  0  0  0  0  0  0  0  0
    5.1771   -0.8313    0.0000 O   0  0  0  0  0  0  0  0  0  0  0  0
    5.1771    1.1687    0.0000 O   0  0  0  0  0  0  0  0  0  0  0  0
    6.9092    2.1687    0.0000 O   0  0  0  0  0  0  0  0  0  0  0  0
    6.7565   -3.6670    0.0000 O   0  0  0  0  0  0  0  0  0  0  0  0
    9.5073    2.6687    0.0000 O   0  0  0  0  0  0  0  0  0  0  0  0
    3.2946   -1.8749    0.0000 O   0  0  0  0  0  0  0  0  0  0  0  0
    9.5073    0.6687    0.0000 O   0  0  0  0  0  0  0  0  0  0  0  0
    6.1641   -5.2946    0.0000 O   0  0  0  0  0  0  0  0  0  0  0  0
   10.3733    4.1687    0.0000 O   0  0  0  0  0  0  0  0  0  0  0  0
    8.4092   -1.6974    0.0000 O   0  0  0  0  0  0  0  0  0  0  0  0
    6.9092   -2.5634    0.0000 O   0  0  0  0  0  0  0  0  0  0  0  0
    2.6106   -3.7543    0.0000 O   0  0  0  0  0  0  0  0  0  0  0  0
    4.6320   -6.5801    0.0000 O   0  0  0  0  0  0  0  0  0  0  0  0
    7.7752    3.6687    0.0000 O   0  0  0  0  0  0  0  0  0  0  0  0
    7.7752    5.6687    0.0000 O   0  0  0  0  0  0  0  0  0  0  0  0
    2.3098   -2.0485    0.0000 O   0  0  0  0  0  0  0  0  0  0  0  0
    9.5073    6.6687    0.0000 N   0  0  0  0  0  0  0  0  0  0  0  0
    6.9092   -0.8313    0.0000 C   0  0  1  0  0  0  0  0  0  0  0  0
    5.6431   -2.3401    0.0000 C   0  0  1  0  0  0  0  0  0  0  0  0
    6.0432   -0.3313    0.0000 C   0  0  2  0  0  0  0  0  0  0  0  0
    7.7752    0.6687    0.0000 C   0  0  1  0  0  0  0  0  0  0  0  0
    6.0432    0.6687    0.0000 C   0  0  2  0  0  0  0  0  0  0  0  0
    6.9092    1.1687    0.0000 C   0  0  1  0  0  0  0  0  0  0  0  0
    5.8168   -3.3250    0.0000 C   0  0  2  0  0  0  0  0  0  0  0  0
    5.0507   -3.9677    0.0000 C   0  0  1  0  0  0  0  0  0  0  0  0
    4.7034   -1.9981    0.0000 C   0  0  0  0  0  0  0  0  0  0  0  0
    3.9374   -2.6409    0.0000 C   0  0  2  0  0  0  0  0  0  0  0  0
    8.6412    1.1687    0.0000 C   0  0  1  0  0  0  0  0  0  0  0  0
    5.2244   -4.9525    0.0000 C   0  0  1  0  0  0  0  0  0  0  0  0
    7.4092   -1.6974    0.0000 C   0  0  0  0  0  0  0  0  0  0  0  0
    8.6412    2.1687    0.0000 C   0  0  0  0  0  0  0  0  0  0  0  0
    2.9526   -2.8146    0.0000 C   0  0  0  0  0  0  0  0  0  0  0  0
    9.5073    3.6687    0.0000 C   0  0  2  0  0  0  0  0  0  0  0  0
    4.4583   -5.5953    0.0000 C   0  0  0  0  0  0  0  0  0  0  0  0
    8.6412    4.1687    0.0000 C   0  0  1  0  0  0  0  0  0  0  0  0
    8.6412    5.1687    0.0000 C   0  0  2  0  0  0  0  0  0  0  0  0
    9.5073    5.6687    0.0000 C   0  0  2  0  0  0  0  0  0  0  0  0
   10.3733    5.1687    0.0000 C   0  0  0  0  0  0  0  0  0  0  0  0
    5.5354   -1.7295    0.0000 H   0  0  0  0  0  0  0  0  0  0  0  0
    6.0432   -0.9513    0.0000 H   0  0  0  0  0  0  0  0  0  0  0  0
    8.5113    0.2437    0.0000 H   0  0  0  0  0  0  0  0  0  0  0  0
    6.0432    1.2887    0.0000 H   0  0  0  0  0  0  0  0  0  0  0  0
    7.4461    1.4787    0.0000 H   0  0  0  0  0  0  0  0  0  0  0  0
    5.9244   -3.9355    0.0000 H   0  0  0  0  0  0  0  0  0  0  0  0
    4.3995   -4.5141    0.0000 H   0  0  0  0  0  0  0  0  0  0  0  0
    5.0134   -1.4612    0.0000 H   0  0  0  0  0  0  0  0  0  0  0  0
    4.2285   -1.5996    0.0000 H   0  0  0  0  0  0  0  0  0  0  0  0
    9.1782    1.4787    0.0000 H   0  0  0  0  0  0  0  0  0  0  0  0
    5.3320   -5.5631    0.0000 H   0  0  0  0  0  0  0  0  0  0  0  0
    8.4292    2.7513    0.0000 H   0  0  0  0  0  0  0  0  0  0  0  0
    8.0307    2.0610    0.0000 H   0  0  0  0  0  0  0  0  0  0  0  0
    4.6402   -0.5213    0.0000 H   0  0  0  0  0  0  0  0  0  0  0  0
    5.1771    1.7887    0.0000 H   0  0  0  0  0  0  0  0  0  0  0  0
    6.3722    2.4787    0.0000 H   0  0  0  0  0  0  0  0  0  0  0  0
    6.8642   -4.2776    0.0000 H   0  0  0  0  0  0  0  0  0  0  0  0
    8.9703    3.3587    0.0000 H   0  0  0  0  0  0  0  0  0  0  0  0
    4.1483   -5.0584    0.0000 H   0  0  0  0  0  0  0  0  0  0  0  0
    3.8757   -5.8074    0.0000 H   0  0  0  0  0  0  0  0  0  0  0  0
    8.1043    4.4787    0.0000 H   0  0  0  0  0  0  0  0  0  0  0  0
    8.6412    5.7887    0.0000 H   0  0  0  0  0  0  0  0  0  0  0  0
    3.5067   -1.2923    0.0000 H   0  0  0  0  0  0  0  0  0  0  0  0
   10.0442    0.9787    0.0000 H   0  0  0  0  0  0  0  0  0  0  0  0
   10.0442    5.9787    0.0000 H   0  0  0  0  0  0  0  0  0  0  0  0
   10.9839    5.0610    0.0000 H   0  0  0  0  0  0  0  0  0  0  0  0
   10.5853    5.7513    0.0000 H   0  0  0  0  0  0  0  0  0  0  0  0
    6.2718   -5.9052    0.0000 H   0  0  0  0  0  0  0  0  0  0  0  0
    8.7192   -1.1604    0.0000 H   0  0  0  0  0  0  0  0  0  0  0  0
    2.0000   -3.8619    0.0000 H   0  0  0  0  0  0  0  0  0  0  0  0
   10.0442    6.9787    0.0000 H   0  0  0  0  0  0  0  0  0  0  0  0
    8.9703    6.9787    0.0000 H   0  0  0  0  0  0  0  0  0  0  0  0
    4.1570   -6.9787    0.0000 H   0  0  0  0  0  0  0  0  0  0  0  0
    7.2383    3.9787    0.0000 H   0  0  0  0  0  0  0  0  0  0  0  0
    7.2383    5.3587    0.0000 H   0  0  0  0  0  0  0  0  0  0  0  0
 21  1  1  6  0  0  0
 22  1  1  1  0  0  0
  2 21  1  0  0  0  0
  2 24  1  0  0  0  0
  3 28  1  0  0  0  0
  3 30  1  0  0  0  0
 23  4  1  1  0  0  0
  4 55  1  0  0  0  0
 25  5  1  1  0  0  0
  5 56  1  0  0  0  0
 26  6  1  1  0  0  0
  6 57  1  0  0  0  0
 27  7  1  1  0  0  0
  7 58  1  0  0  0  0
  8 34  1  0  0  0  0
 36  8  1  1  0  0  0
 30  9  1  6  0  0  0
  9 64  1  0  0  0  0
 31 10  1  1  0  0  0
 10 65  1  0  0  0  0
 32 11  1  6  0  0  0
 11 69  1  0  0  0  0
 12 36  1  0  0  0  0
 12 41  1  0  0  0  0
 13 33  1  0  0  0  0
 13 70  1  0  0  0  0
 14 33  2  0  0  0  0
 15 35  1  0  0  0  0
 15 71  1  0  0  0  0
 16 37  1  0  0  0  0
 16 74  1  0  0  0  0
 38 17  1  6  0  0  0
 17 75  1  0  0  0  0
 39 18  1  1  0  0  0
 18 76  1  0  0  0  0
 19 35  2  0  0  0  0
 40 20  1  1  0  0  0
 20 72  1  0  0  0  0
 20 73  1  0  0  0  0
 21 23  1  0  0  0  0
 21 33  1  0  0  0  0
 22 27  1  0  0  0  0
 22 29  1  0  0  0  0
 22 42  1  0  0  0  0
 23 25  1  0  0  0  0
 23 43  1  0  0  0  0
 24 26  1  0  0  0  0
 24 31  1  0  0  0  0
 24 44  1  6  0  0  0
 25 26  1  0  0  0  0
 25 45  1  0  0  0  0
 26 46  1  0  0  0  0
 27 28  1  0  0  0  0
 27 47  1  0  0  0  0
 28 32  1  0  0  0  0
 28 48  1  6  0  0  0
 29 30  1  0  0  0  0
 29 49  1  0  0  0  0
 29 50  1  0  0  0  0
 30 35  1  0  0  0  0
 31 34  1  0  0  0  0
 31 51  1  0  0  0  0
 32 37  1  0  0  0  0
 32 52  1  0  0  0  0
 34 53  1  0  0  0  0
 34 54  1  0  0  0  0
 36 38  1  0  0  0  0
 36 59  1  0  0  0  0
 37 60  1  0  0  0  0
 37 61  1  0  0  0  0
 38 39  1  0  0  0  0
 38 62  1  0  0  0  0
 39 40  1  0  0  0  0
 39 63  1  0  0  0  0
 40 41  1  0  0  0  0
 40 66  1  0  0  0  0
 41 67  1  0  0  0  0
 41 68  1  0  0  0  0
M  END
> <PUBCHEM_COMPOUND_CID>
91846641

> <PUBCHEM_COMPOUND_CANONICALIZED>
1

> <PUBCHEM_CACTVS_COMPLEXITY>
927

> <PUBCHEM_CACTVS_HBOND_ACCEPTOR>
20

> <PUBCHEM_CACTVS_HBOND_DONOR>
13

> <PUBCHEM_CACTVS_ROTATABLE_BOND>
10

> <PUBCHEM_CACTVS_SUBSKEYS>
AAADcfB6PgAAAAAAAAAAAAAAAAAAAAAAAAAkSJAAAAAAAAAAAAAAHgAQCAAACDzxgAcACABABgAIAACQCAIAAAAAAAAAAIFAAAATEBYAgAQjQAAHMAAHAAHq7KzAAAAAAAAAAAAAAAAAAAAAAAAAAAAAAA==

> <PUBCHEM_IUPAC_OPENEYE_NAME>
(2R,3S,4S,5R,6R)-6-[(1R)-2-[(2S,3R,4S,5S)-5-amino-3,4-dihydroxy-tetrahydropyran-2-yl]oxy-1-hydroxy-ethyl]-2-[(2R,4R,5R,6R)-2-carboxy-6-[(1R)-1,2-dihydroxyethyl]-2,5-dihydroxy-tetrahydropyran-4-yl]oxy-3,4,5-trihydroxy-tetrahydropyran-2-carboxylic acid

> <PUBCHEM_IUPAC_CAS_NAME>
(2R,3S,4S,5R,6R)-6-[(1R)-2-[[(2S,3R,4S,5S)-5-amino-3,4-dihydroxy-2-oxanyl]oxy]-1-hydroxyethyl]-2-[[(2R,4R,5R,6R)-2-carboxy-6-[(1R)-1,2-dihydroxyethyl]-2,5-dihydroxy-4-oxanyl]oxy]-3,4,5-trihydroxy-2-oxanecarboxylic acid

> <PUBCHEM_IUPAC_NAME_MARKUP>
(2<I>R</I>,3<I>S</I>,4<I>S</I>,5<I>R</I>,6<I>R</I>)-6-[(1<I>R</I>)-2-[(2<I>S</I>,3<I>R</I>,4<I>S</I>,5<I>S</I>)-5-amino-3,4-dihydroxyoxan-2-yl]oxy-1-hydroxyethyl]-2-[(2<I>R</I>,4<I>R</I>,5<I>R</I>,6<I>R</I>)-2-carboxy-6-[(1<I>R</I>)-1,2-dihydroxyethyl]-2,5-dihydroxyoxan-4-yl]oxy-3,4,5-trihydroxyoxane-2-carboxylic acid

> <PUBCHEM_IUPAC_NAME>
(2R,3S,4S,5R,6R)-6-[(1R)-2-[(2S,3R,4S,5S)-5-amino-3,4-dihydroxyoxan-2-yl]oxy-1-hydroxyethyl]-2-[(2R,4R,5R,6R)-2-carboxy-6-[(1R)-1,2-dihydroxyethyl]-2,5-dihydroxyoxan-4-yl]oxy-3,4,5-trihydroxyoxane-2-carboxylic acid

> <PUBCHEM_IUPAC_SYSTEMATIC_NAME>
(2R,3S,4S,5R,6R)-6-[(1R)-2-[(2S,3R,4S,5S)-5-azanyl-3,4-bis(oxidanyl)oxan-2-yl]oxy-1-oxidanyl-ethyl]-2-[(2R,4R,5R,6R)-6-[(1R)-1,2-bis(oxidanyl)ethyl]-2-carboxy-2,5-bis(oxidanyl)oxan-4-yl]oxy-3,4,5-tris(oxidanyl)oxane-2-carboxylic acid

> <PUBCHEM_IUPAC_TRADITIONAL_NAME>
(2R,3S,4S,5R,6R)-6-[(1R)-2-[(2S,3R,4S,5S)-5-amino-3,4-dihydroxy-tetrahydropyran-2-yl]oxy-1-hydroxy-ethyl]-2-[(2R,4R,5R,6R)-2-carboxy-6-[(1R)-1,2-dihydroxyethyl]-2,5-dihydroxy-tetrahydropyran-4-yl]oxy-3,4,5-trihydroxy-tetrahydropyran-2-carboxylic acid

> <PUBCHEM_IUPAC_INCHI>
InChI=1S/C21H35NO19/c22-5-3-37-17(13(30)9(5)26)38-4-7(25)15-11(28)12(29)16(31)21(41-15,19(34)35)39-8-1-20(36,18(32)33)40-14(10(8)27)6(24)2-23/h5-17,23-31,36H,1-4,22H2,(H,32,33)(H,34,35)/t5-,6+,7+,8+,9-,10+,11+,12-,13+,14+,15+,16-,17-,20+,21+/m0/s1

> <PUBCHEM_IUPAC_INCHIKEY>
PUPWAICTZZETSD-LLETVAKZSA-N

> <PUBCHEM_XLOGP3_AA>
-9.2

> <PUBCHEM_EXACT_MASS>
605.18032789

> <PUBCHEM_MOLECULAR_FORMULA>
C21H35NO19

> <PUBCHEM_MOLECULAR_WEIGHT>
605.5

> <PUBCHEM_OPENEYE_CAN_SMILES>
C1C(C(C(OC1(C(=O)O)O)C(CO)O)O)OC2(C(C(C(C(O2)C(COC3C(C(C(CO3)N)O)O)O)O)O)O)C(=O)O

> <PUBCHEM_OPENEYE_ISO_SMILES>
C1[C@H]([C@H]([C@H](O[C@]1(C(=O)O)O)[C@@H](CO)O)O)O[C@@]2([C@H]([C@H]([C@H]([C@H](O2)[C@@H](CO[C@H]3[C@@H]([C@H]([C@H](CO3)N)O)O)O)O)O)O)C(=O)O

> <PUBCHEM_CACTVS_TPSA>
349

> <PUBCHEM_MONOISOTOPIC_WEIGHT>
605.18032789

> <PUBCHEM_TOTAL_CHARGE>
0

> <PUBCHEM_HEAVY_ATOM_COUNT>
41

> <PUBCHEM_ATOM_DEF_STEREO_COUNT>
15

> <PUBCHEM_ATOM_UDEF_STEREO_COUNT>
0

> <PUBCHEM_BOND_DEF_STEREO_COUNT>
0

> <PUBCHEM_BOND_UDEF_STEREO_COUNT>
0

> <PUBCHEM_ISOTOPIC_ATOM_COUNT>
0

> <PUBCHEM_COMPONENT_COUNT>
1

> <PUBCHEM_CACTVS_TAUTO_COUNT>
-1

> <PUBCHEM_COORDINATE_TYPE>
1
5
255

> <PUBCHEM_BONDANNOTATIONS>
21  1  6
22  1  5
31  10  5
32  11  6
38  17  6
39  18  5
40  20  5
24  44  6
28  48  6
23  4  5
25  5  5
26  6  5
27  7  5
36  8  5
30  9  6

$$$$
