 
  -OEChem-10192104032D

 73 76  0     1  0  0  0  0  0999 V2000
    2.0000   -1.3840    0.0000 O   0  0  0  0  0  0  0  0  0  0  0  0
    4.2320   -6.2500    0.0000 O   0  0  0  0  0  0  0  0  0  0  0  0
    3.7320    7.6160    0.0000 O   0  0  0  0  0  0  0  0  0  0  0  0
    3.3660   -3.7500    0.0000 O   0  0  0  0  0  0  0  0  0  0  0  0
    5.5981   -7.6160    0.0000 O   0  0  0  0  0  0  0  0  0  0  0  0
    8.5622    1.2500    0.0000 O   0  0  0  0  0  0  0  0  0  0  0  0
    8.0622    3.1160    0.0000 O   0  0  0  0  0  0  0  0  0  0  0  0
    5.0981    5.2500    0.0000 O   0  0  0  0  0  0  0  0  0  0  0  0
    5.0981   -3.7500    0.0000 O   0  0  0  0  0  0  0  0  0  0  0  0
    6.8301    2.2500    0.0000 O   0  0  0  0  0  0  0  0  0  0  0  0
    6.8301   -0.7500    0.0000 O   0  0  0  0  0  0  0  0  0  0  0  0
    6.8301    4.2500    0.0000 O   0  0  0  0  0  0  0  0  0  0  0  0
    5.0981   -1.7500    0.0000 O   0  0  0  0  0  0  0  0  0  0  0  0
    2.5000   -2.2500    0.0000 C   0  0  3  0  0  0  0  0  0  0  0  0
    3.0000   -1.3840    0.0000 C   0  0  0  0  0  0  0  0  0  0  0  0
    4.2320   -5.2500    0.0000 C   0  0  3  0  0  0  0  0  0  0  0  0
    4.2320    6.7500    0.0000 C   0  0  3  0  0  0  0  0  0  0  0  0
    2.5000   -3.2500    0.0000 C   0  0  0  0  0  0  0  0  0  0  0  0
    5.0981   -6.7500    0.0000 C   0  0  3  0  0  0  0  0  0  0  0  0
    4.7320    7.6160    0.0000 C   0  0  0  0  0  0  0  0  0  0  0  0
    3.3660   -4.7500    0.0000 C   0  0  0  0  0  0  0  0  0  0  0  0
    8.5622    2.2500    0.0000 C   0  0  3  0  0  0  0  0  0  0  0  0
    7.6962    0.7500    0.0000 C   0  0  3  0  0  0  0  0  0  0  0  0
    6.0981   -6.7500    0.0000 C   0  0  0  0  0  0  0  0  0  0  0  0
    5.0981   -4.7500    0.0000 C   0  0  0  0  0  0  0  0  0  0  0  0
    4.2320    5.7500    0.0000 C   0  0  0  0  0  0  0  0  0  0  0  0
    9.0622    3.1160    0.0000 C   0  0  0  0  0  0  0  0  0  0  0  0
    6.8301    1.2500    0.0000 C   0  0  0  0  0  0  0  0  0  0  0  0
    7.6962   -0.2500    0.0000 C   0  0  0  0  0  0  0  0  0  0  0  0
    5.9641    3.7500    0.0000 C   0  0  3  0  0  0  0  0  0  0  0  0
    5.9641   -2.2500    0.0000 C   0  0  3  0  0  0  0  0  0  0  0  0
    5.0981    4.2500    0.0000 C   0  0  0  0  0  0  0  0  0  0  0  0
    5.9641   -3.2500    0.0000 C   0  0  0  0  0  0  0  0  0  0  0  0
    5.9641    2.7500    0.0000 C   0  0  0  0  0  0  0  0  0  0  0  0
    6.8301   -1.7500    0.0000 C   0  0  0  0  0  0  0  0  0  0  0  0
    1.9011   -2.4105    0.0000 H   0  0  0  0  0  0  0  0  0  0  0  0
    3.5826   -1.5960    0.0000 H   0  0  0  0  0  0  0  0  0  0  0  0
    3.1077   -0.7734    0.0000 H   0  0  0  0  0  0  0  0  0  0  0  0
    4.7690   -5.5600    0.0000 H   0  0  0  0  0  0  0  0  0  0  0  0
    3.6332    6.5895    0.0000 H   0  0  0  0  0  0  0  0  0  0  0  0
    1.8894   -3.1423    0.0000 H   0  0  0  0  0  0  0  0  0  0  0  0
    2.2880   -3.8326    0.0000 H   0  0  0  0  0  0  0  0  0  0  0  0
    5.2585   -6.1511    0.0000 H   0  0  0  0  0  0  0  0  0  0  0  0
    5.3147    7.4040    0.0000 H   0  0  0  0  0  0  0  0  0  0  0  0
    4.8397    8.2266    0.0000 H   0  0  0  0  0  0  0  0  0  0  0  0
    2.7554   -4.6423    0.0000 H   0  0  0  0  0  0  0  0  0  0  0  0
    3.1540   -5.3326    0.0000 H   0  0  0  0  0  0  0  0  0  0  0  0
    9.1610    2.0895    0.0000 H   0  0  0  0  0  0  0  0  0  0  0  0
    8.2331    0.4400    0.0000 H   0  0  0  0  0  0  0  0  0  0  0  0
    6.6807   -6.9620    0.0000 H   0  0  0  0  0  0  0  0  0  0  0  0
    6.2057   -6.1394    0.0000 H   0  0  0  0  0  0  0  0  0  0  0  0
    5.3101   -5.3326    0.0000 H   0  0  0  0  0  0  0  0  0  0  0  0
    5.7087   -4.6423    0.0000 H   0  0  0  0  0  0  0  0  0  0  0  0
    3.6215    5.8577    0.0000 H   0  0  0  0  0  0  0  0  0  0  0  0
    4.0200    5.1674    0.0000 H   0  0  0  0  0  0  0  0  0  0  0  0
    9.6448    2.9040    0.0000 H   0  0  0  0  0  0  0  0  0  0  0  0
    9.1698    3.7266    0.0000 H   0  0  0  0  0  0  0  0  0  0  0  0
    6.2196    1.3577    0.0000 H   0  0  0  0  0  0  0  0  0  0  0  0
    6.6181    0.6674    0.0000 H   0  0  0  0  0  0  0  0  0  0  0  0
    7.9082   -0.8326    0.0000 H   0  0  0  0  0  0  0  0  0  0  0  0
    8.3067   -0.1423    0.0000 H   0  0  0  0  0  0  0  0  0  0  0  0
    5.9641    4.3700    0.0000 H   0  0  0  0  0  0  0  0  0  0  0  0
    5.9641   -1.6300    0.0000 H   0  0  0  0  0  0  0  0  0  0  0  0
    4.4875    4.3577    0.0000 H   0  0  0  0  0  0  0  0  0  0  0  0
    4.8860    3.6674    0.0000 H   0  0  0  0  0  0  0  0  0  0  0  0
    6.1762   -3.8326    0.0000 H   0  0  0  0  0  0  0  0  0  0  0  0
    6.5747   -3.1423    0.0000 H   0  0  0  0  0  0  0  0  0  0  0  0
    5.3535    2.8577    0.0000 H   0  0  0  0  0  0  0  0  0  0  0  0
    5.7520    2.1674    0.0000 H   0  0  0  0  0  0  0  0  0  0  0  0
    7.0422   -2.3326    0.0000 H   0  0  0  0  0  0  0  0  0  0  0  0
    7.4407   -1.6423    0.0000 H   0  0  0  0  0  0  0  0  0  0  0  0
    6.8301    4.8700    0.0000 H   0  0  0  0  0  0  0  0  0  0  0  0
    5.0981   -1.1300    0.0000 H   0  0  0  0  0  0  0  0  0  0  0  0
  1 14  1  0  0  0  0
  1 15  1  0  0  0  0
  2 16  1  0  0  0  0
  2 19  1  0  0  0  0
  3 17  1  0  0  0  0
  3 20  1  0  0  0  0
  4 18  1  0  0  0  0
  4 21  1  0  0  0  0
  5 19  1  0  0  0  0
  5 24  1  0  0  0  0
  6 22  1  0  0  0  0
  6 23  1  0  0  0  0
  7 22  1  0  0  0  0
  7 27  1  0  0  0  0
  8 26  1  0  0  0  0
  8 32  1  0  0  0  0
  9 25  1  0  0  0  0
  9 33  1  0  0  0  0
 10 28  1  0  0  0  0
 10 34  1  0  0  0  0
 11 29  1  0  0  0  0
 11 35  1  0  0  0  0
 12 30  1  0  0  0  0
 12 72  1  0  0  0  0
 13 31  1  0  0  0  0
 13 73  1  0  0  0  0
 14 15  1  0  0  0  0
 14 18  1  0  0  0  0
 14 36  1  0  0  0  0
 15 37  1  0  0  0  0
 15 38  1  0  0  0  0
 16 21  1  0  0  0  0
 16 25  1  0  0  0  0
 16 39  1  0  0  0  0
 17 20  1  0  0  0  0
 17 26  1  0  0  0  0
 17 40  1  0  0  0  0
 18 41  1  0  0  0  0
 18 42  1  0  0  0  0
 19 24  1  0  0  0  0
 19 43  1  0  0  0  0
 20 44  1  0  0  0  0
 20 45  1  0  0  0  0
 21 46  1  0  0  0  0
 21 47  1  0  0  0  0
 22 27  1  0  0  0  0
 22 48  1  0  0  0  0
 23 28  1  0  0  0  0
 23 29  1  0  0  0  0
 23 49  1  0  0  0  0
 24 50  1  0  0  0  0
 24 51  1  0  0  0  0
 25 52  1  0  0  0  0
 25 53  1  0  0  0  0
 26 54  1  0  0  0  0
 26 55  1  0  0  0  0
 27 56  1  0  0  0  0
 27 57  1  0  0  0  0
 28 58  1  0  0  0  0
 28 59  1  0  0  0  0
 29 60  1  0  0  0  0
 29 61  1  0  0  0  0
 30 32  1  0  0  0  0
 30 34  1  0  0  0  0
 30 62  1  0  0  0  0
 31 33  1  0  0  0  0
 31 35  1  0  0  0  0
 31 63  1  0  0  0  0
 32 64  1  0  0  0  0
 32 65  1  0  0  0  0
 33 66  1  0  0  0  0
 33 67  1  0  0  0  0
 34 68  1  0  0  0  0
 34 69  1  0  0  0  0
 35 70  1  0  0  0  0
 35 71  1  0  0  0  0
M  END
> <PUBCHEM_COMPOUND_CID>
54573612

> <PUBCHEM_COMPOUND_CANONICALIZED>
1

> <PUBCHEM_CACTVS_COMPLEXITY>
584

> <PUBCHEM_CACTVS_HBOND_ACCEPTOR>
13

> <PUBCHEM_CACTVS_HBOND_DONOR>
2

> <PUBCHEM_CACTVS_ROTATABLE_BOND>
24

> <PUBCHEM_CACTVS_SUBSKEYS>
AAADcfB4PAAAAAAAAAAAAAAAEiQAAAAAAAAAAAAAAAAAAAAAAAAAGgAACAAACBSwgAMACAAABgAAAAAAAAAAAAAAAAAAAAAAAAAREAAAAAAiAAABAAAHAAAAAAAAAAAAAAAAAAAAAAAAAAAAAAAAAAAAAA==

> <PUBCHEM_IUPAC_OPENEYE_NAME>
1-[3-[2-hydroxy-3-[3-(oxiran-2-ylmethoxy)-2-(oxiran-2-yloxy)propoxy]propoxy]-2-(oxiran-2-yloxy)propoxy]-3-(oxiran-2-ylmethoxy)propan-2-ol

> <PUBCHEM_IUPAC_CAS_NAME>
1-[3-[2-hydroxy-3-[3-(2-oxiranylmethoxy)-2-(2-oxiranyloxy)propoxy]propoxy]-2-(2-oxiranyloxy)propoxy]-3-(2-oxiranylmethoxy)-2-propanol

> <PUBCHEM_IUPAC_NAME_MARKUP>
1-[3-[2-hydroxy-3-[3-(oxiran-2-ylmethoxy)-2-(oxiran-2-yloxy)propoxy]propoxy]-2-(oxiran-2-yloxy)propoxy]-3-(oxiran-2-ylmethoxy)propan-2-ol

> <PUBCHEM_IUPAC_NAME>
1-[3-[2-hydroxy-3-[3-(oxiran-2-ylmethoxy)-2-(oxiran-2-yloxy)propoxy]propoxy]-2-(oxiran-2-yloxy)propoxy]-3-(oxiran-2-ylmethoxy)propan-2-ol

> <PUBCHEM_IUPAC_SYSTEMATIC_NAME>
1-[3-[2-oxidanyl-3-[3-(oxiran-2-ylmethoxy)-2-(oxiran-2-yloxy)propoxy]propoxy]-2-(oxiran-2-yloxy)propoxy]-3-(oxiran-2-ylmethoxy)propan-2-ol

> <PUBCHEM_IUPAC_TRADITIONAL_NAME>
1-glycidoxy-3-[3-[3-[3-glycidoxy-2-(oxiran-2-yloxy)propoxy]-2-hydroxy-propoxy]-2-(oxiran-2-yloxy)propoxy]propan-2-ol

> <PUBCHEM_IUPAC_INCHI>
InChI=1S/C22H38O13/c23-15(1-25-5-17-11-30-17)2-26-7-19(34-21-13-32-21)8-27-3-16(24)4-28-9-20(35-22-14-33-22)10-29-6-18-12-31-18/h15-24H,1-14H2

> <PUBCHEM_IUPAC_INCHIKEY>
ZZAORMYLUONVQR-UHFFFAOYSA-N

> <PUBCHEM_XLOGP3_AA>
-2.9

> <PUBCHEM_EXACT_MASS>
510.23124126

> <PUBCHEM_MOLECULAR_FORMULA>
C22H38O13

> <PUBCHEM_MOLECULAR_WEIGHT>
510.5

> <PUBCHEM_OPENEYE_CAN_SMILES>
C1C(O1)COCC(COCC(COCC(COCC(COCC2CO2)OC3CO3)O)OC4CO4)O

> <PUBCHEM_OPENEYE_ISO_SMILES>
C1C(O1)COCC(COCC(COCC(COCC(COCC2CO2)OC3CO3)O)OC4CO4)O

> <PUBCHEM_CACTVS_TPSA>
155

> <PUBCHEM_MONOISOTOPIC_WEIGHT>
510.23124126

> <PUBCHEM_TOTAL_CHARGE>
0

> <PUBCHEM_HEAVY_ATOM_COUNT>
35

> <PUBCHEM_ATOM_DEF_STEREO_COUNT>
0

> <PUBCHEM_ATOM_UDEF_STEREO_COUNT>
8

> <PUBCHEM_BOND_DEF_STEREO_COUNT>
0

> <PUBCHEM_BOND_UDEF_STEREO_COUNT>
0

> <PUBCHEM_ISOTOPIC_ATOM_COUNT>
0

> <PUBCHEM_COMPONENT_COUNT>
1

> <PUBCHEM_CACTVS_TAUTO_COUNT>
-1

> <PUBCHEM_COORDINATE_TYPE>
1
5
255

> <PUBCHEM_BONDANNOTATIONS>
30  12  3
31  13  3
14  18  3
16  21  3
17  26  3
19  2  3
23  28  3
22  6  3

$$$$
