 
  -OEChem-10192103332D

 41 42  0     0  0  0  0  0  0999 V2000
    9.6921    0.5601    0.0000 O   0  0  0  0  0  0  0  0  0  0  0  0
    4.6730   -0.7848    0.0000 O   0  0  0  0  0  0  0  0  0  0  0  0
   10.1404    2.2331    0.0000 O   0  0  0  0  0  0  0  0  0  0  0  0
    3.4483    0.4399    0.0000 O   0  0  0  0  0  0  0  0  0  0  0  0
    7.0532    0.3706    0.0000 O   0  0  0  0  0  0  0  0  0  0  0  0
   11.3652    1.0084    0.0000 C   0  0  0  0  0  0  0  0  0  0  0  0
    3.0000   -1.2331    0.0000 C   0  0  0  0  0  0  0  0  0  0  0  0
   11.8652    0.1423    0.0000 C   0  0  0  0  0  0  0  0  0  0  0  0
   12.2312    1.5084    0.0000 C   0  0  0  0  0  0  0  0  0  0  0  0
    3.0000   -2.2331    0.0000 C   0  0  0  0  0  0  0  0  0  0  0  0
    2.0000   -1.2331    0.0000 C   0  0  0  0  0  0  0  0  0  0  0  0
   12.7312    0.6423    0.0000 C   0  0  0  0  0  0  0  0  0  0  0  0
    2.0000   -2.2331    0.0000 C   0  0  0  0  0  0  0  0  0  0  0  0
   10.3992    1.2672    0.0000 C   0  0  0  0  0  0  0  0  0  0  0  0
    3.7071   -0.5260    0.0000 C   0  0  0  0  0  0  0  0  0  0  0  0
    8.7262    0.8189    0.0000 C   0  0  0  0  0  0  0  0  0  0  0  0
    5.3801   -0.0777    0.0000 C   0  0  0  0  0  0  0  0  0  0  0  0
    8.0191    0.1118    0.0000 C   0  0  0  0  0  0  0  0  0  0  0  0
    6.3461   -0.3365    0.0000 C   0  0  0  0  0  0  0  0  0  0  0  0
   11.2842    1.6230    0.0000 H   0  0  0  0  0  0  0  0  0  0  0  0
    3.5728   -1.4704    0.0000 H   0  0  0  0  0  0  0  0  0  0  0  0
   11.3282   -0.1677    0.0000 H   0  0  0  0  0  0  0  0  0  0  0  0
   12.1752   -0.3946    0.0000 H   0  0  0  0  0  0  0  0  0  0  0  0
   12.7681    1.8184    0.0000 H   0  0  0  0  0  0  0  0  0  0  0  0
   11.9212    2.0453    0.0000 H   0  0  0  0  0  0  0  0  0  0  0  0
    3.0000   -2.8531    0.0000 H   0  0  0  0  0  0  0  0  0  0  0  0
    3.6200   -2.2331    0.0000 H   0  0  0  0  0  0  0  0  0  0  0  0
    2.0000   -0.6131    0.0000 H   0  0  0  0  0  0  0  0  0  0  0  0
    1.3800   -1.2331    0.0000 H   0  0  0  0  0  0  0  0  0  0  0  0
   13.0412    0.1054    0.0000 H   0  0  0  0  0  0  0  0  0  0  0  0
   13.2681    0.9523    0.0000 H   0  0  0  0  0  0  0  0  0  0  0  0
    1.3800   -2.2331    0.0000 H   0  0  0  0  0  0  0  0  0  0  0  0
    2.0000   -2.8531    0.0000 H   0  0  0  0  0  0  0  0  0  0  0  0
    8.9882    1.3808    0.0000 H   0  0  0  0  0  0  0  0  0  0  0  0
    8.2183    1.1745    0.0000 H   0  0  0  0  0  0  0  0  0  0  0  0
    5.6422    0.4842    0.0000 H   0  0  0  0  0  0  0  0  0  0  0  0
    4.8723    0.2779    0.0000 H   0  0  0  0  0  0  0  0  0  0  0  0
    7.7571   -0.4501    0.0000 H   0  0  0  0  0  0  0  0  0  0  0  0
    8.5270   -0.2438    0.0000 H   0  0  0  0  0  0  0  0  0  0  0  0
    6.0840   -0.8984    0.0000 H   0  0  0  0  0  0  0  0  0  0  0  0
    6.8539   -0.6921    0.0000 H   0  0  0  0  0  0  0  0  0  0  0  0
  1 14  1  0  0  0  0
  1 16  1  0  0  0  0
  2 15  1  0  0  0  0
  2 17  1  0  0  0  0
  3 14  2  0  0  0  0
  4 15  2  0  0  0  0
  5 18  1  0  0  0  0
  5 19  1  0  0  0  0
  6  8  1  0  0  0  0
  6  9  1  0  0  0  0
  6 14  1  0  0  0  0
  6 20  1  0  0  0  0
  7 10  1  0  0  0  0
  7 11  1  0  0  0  0
  7 15  1  0  0  0  0
  7 21  1  0  0  0  0
  8 12  1  0  0  0  0
  8 22  1  0  0  0  0
  8 23  1  0  0  0  0
  9 12  1  0  0  0  0
  9 24  1  0  0  0  0
  9 25  1  0  0  0  0
 10 13  1  0  0  0  0
 10 26  1  0  0  0  0
 10 27  1  0  0  0  0
 11 13  1  0  0  0  0
 11 28  1  0  0  0  0
 11 29  1  0  0  0  0
 12 30  1  0  0  0  0
 12 31  1  0  0  0  0
 13 32  1  0  0  0  0
 13 33  1  0  0  0  0
 16 18  1  0  0  0  0
 16 34  1  0  0  0  0
 16 35  1  0  0  0  0
 17 19  1  0  0  0  0
 17 36  1  0  0  0  0
 17 37  1  0  0  0  0
 18 38  1  0  0  0  0
 18 39  1  0  0  0  0
 19 40  1  0  0  0  0
 19 41  1  0  0  0  0
M  END
> <PUBCHEM_COMPOUND_CID>
11391580

> <PUBCHEM_COMPOUND_CANONICALIZED>
1

> <PUBCHEM_CACTVS_COMPLEXITY>
277

> <PUBCHEM_CACTVS_HBOND_ACCEPTOR>
5

> <PUBCHEM_CACTVS_HBOND_DONOR>
0

> <PUBCHEM_CACTVS_ROTATABLE_BOND>
10

> <PUBCHEM_CACTVS_SUBSKEYS>
AAADceBwOAAAAAAAAAAAAAAAAABgwAAAAAAAAAAAAAAAAAAAAAAAGgAAAAAADQCggAIACAAABAAIAACQCAAAAAAAAAAAAAEAAAABABIAAAACAAAEAAACAACIAAAIAAAAAAAAAAAAAAAAAAAAAAAAAAAAAA==

> <PUBCHEM_IUPAC_OPENEYE_NAME>
2-[2-(cyclobutanecarbonyloxy)ethoxy]ethyl cyclobutanecarboxylate

> <PUBCHEM_IUPAC_CAS_NAME>
cyclobutanecarboxylic acid 2-[2-[cyclobutyl(oxo)methoxy]ethoxy]ethyl ester

> <PUBCHEM_IUPAC_NAME_MARKUP>
2-[2-(cyclobutanecarbonyloxy)ethoxy]ethyl cyclobutanecarboxylate

> <PUBCHEM_IUPAC_NAME>
2-[2-(cyclobutanecarbonyloxy)ethoxy]ethyl cyclobutanecarboxylate

> <PUBCHEM_IUPAC_SYSTEMATIC_NAME>
2-(2-cyclobutylcarbonyloxyethoxy)ethyl cyclobutanecarboxylate

> <PUBCHEM_IUPAC_TRADITIONAL_NAME>
cyclobutanecarboxylic acid 2-[2-(cyclobutanecarbonyloxy)ethoxy]ethyl ester

> <PUBCHEM_IUPAC_INCHI>
InChI=1S/C14H22O5/c15-13(11-3-1-4-11)18-9-7-17-8-10-19-14(16)12-5-2-6-12/h11-12H,1-10H2

> <PUBCHEM_IUPAC_INCHIKEY>
RBQDZKWNFQZLFM-UHFFFAOYSA-N

> <PUBCHEM_XLOGP3_AA>
1.9

> <PUBCHEM_EXACT_MASS>
270.14672380

> <PUBCHEM_MOLECULAR_FORMULA>
C14H22O5

> <PUBCHEM_MOLECULAR_WEIGHT>
270.32

> <PUBCHEM_OPENEYE_CAN_SMILES>
C1CC(C1)C(=O)OCCOCCOC(=O)C2CCC2

> <PUBCHEM_OPENEYE_ISO_SMILES>
C1CC(C1)C(=O)OCCOCCOC(=O)C2CCC2

> <PUBCHEM_CACTVS_TPSA>
61.8

> <PUBCHEM_MONOISOTOPIC_WEIGHT>
270.14672380

> <PUBCHEM_TOTAL_CHARGE>
0

> <PUBCHEM_HEAVY_ATOM_COUNT>
19

> <PUBCHEM_ATOM_DEF_STEREO_COUNT>
0

> <PUBCHEM_ATOM_UDEF_STEREO_COUNT>
0

> <PUBCHEM_BOND_DEF_STEREO_COUNT>
0

> <PUBCHEM_BOND_UDEF_STEREO_COUNT>
0

> <PUBCHEM_ISOTOPIC_ATOM_COUNT>
0

> <PUBCHEM_COMPONENT_COUNT>
1

> <PUBCHEM_CACTVS_TAUTO_COUNT>
-1

> <PUBCHEM_COORDINATE_TYPE>
1
5
255

$$$$
