 
  -OEChem-10192103452D

 40 39  0     1  0  0  0  0  0999 V2000
   11.1972    0.0950    0.0000 O   0  0  0  0  0  0  0  0  0  0  0  0
   10.3312   -1.4050    0.0000 O   0  0  0  0  0  0  0  0  0  0  0  0
   12.9292    1.0950    0.0000 O   0  0  0  0  0  0  0  0  0  0  0  0
    2.5369    0.0950    0.0000 O   0  0  0  0  0  0  0  0  0  0  0  0
   14.6613    0.0950    0.0000 O   0  0  0  0  0  0  0  0  0  0  0  0
    3.4030   -1.4050    0.0000 O   0  0  0  0  0  0  0  0  0  0  0  0
    6.8671   -0.4050    0.0000 C   0  0  0  0  0  0  0  0  0  0  0  0
    7.7331    0.0950    0.0000 C   0  0  0  0  0  0  0  0  0  0  0  0
    6.0010    0.0950    0.0000 C   0  0  0  0  0  0  0  0  0  0  0  0
    8.5991   -0.4050    0.0000 C   0  0  0  0  0  0  0  0  0  0  0  0
    5.1350   -0.4050    0.0000 C   0  0  0  0  0  0  0  0  0  0  0  0
    9.4651    0.0950    0.0000 C   0  0  0  0  0  0  0  0  0  0  0  0
    4.2690    0.0950    0.0000 C   0  0  0  0  0  0  0  0  0  0  0  0
   10.3312   -0.4050    0.0000 C   0  0  0  0  0  0  0  0  0  0  0  0
   12.0632   -0.4050    0.0000 C   0  0  0  0  0  0  0  0  0  0  0  0
   12.9292    0.0950    0.0000 C   0  0  3  0  0  0  0  0  0  0  0  0
    3.4030   -0.4050    0.0000 C   0  0  0  0  0  0  0  0  0  0  0  0
   13.7953   -0.4050    0.0000 C   0  0  0  0  0  0  0  0  0  0  0  0
    6.4685   -0.8799    0.0000 H   0  0  0  0  0  0  0  0  0  0  0  0
    7.2656   -0.8799    0.0000 H   0  0  0  0  0  0  0  0  0  0  0  0
    8.1316    0.5699    0.0000 H   0  0  0  0  0  0  0  0  0  0  0  0
    7.3346    0.5699    0.0000 H   0  0  0  0  0  0  0  0  0  0  0  0
    6.3996    0.5699    0.0000 H   0  0  0  0  0  0  0  0  0  0  0  0
    5.6025    0.5699    0.0000 H   0  0  0  0  0  0  0  0  0  0  0  0
    8.2006   -0.8799    0.0000 H   0  0  0  0  0  0  0  0  0  0  0  0
    8.9976   -0.8799    0.0000 H   0  0  0  0  0  0  0  0  0  0  0  0
    4.7365   -0.8799    0.0000 H   0  0  0  0  0  0  0  0  0  0  0  0
    5.5335   -0.8799    0.0000 H   0  0  0  0  0  0  0  0  0  0  0  0
    9.8637    0.5699    0.0000 H   0  0  0  0  0  0  0  0  0  0  0  0
    9.0666    0.5699    0.0000 H   0  0  0  0  0  0  0  0  0  0  0  0
    4.6675    0.5699    0.0000 H   0  0  0  0  0  0  0  0  0  0  0  0
    3.8705    0.5699    0.0000 H   0  0  0  0  0  0  0  0  0  0  0  0
   11.6647   -0.8799    0.0000 H   0  0  0  0  0  0  0  0  0  0  0  0
   12.4617   -0.8799    0.0000 H   0  0  0  0  0  0  0  0  0  0  0  0
   12.3923    0.4050    0.0000 H   0  0  0  0  0  0  0  0  0  0  0  0
   13.3967   -0.8799    0.0000 H   0  0  0  0  0  0  0  0  0  0  0  0
   14.1938   -0.8799    0.0000 H   0  0  0  0  0  0  0  0  0  0  0  0
   13.4662    1.4050    0.0000 H   0  0  0  0  0  0  0  0  0  0  0  0
    2.0000   -0.2150    0.0000 H   0  0  0  0  0  0  0  0  0  0  0  0
   15.1982   -0.2150    0.0000 H   0  0  0  0  0  0  0  0  0  0  0  0
  1 14  1  0  0  0  0
  1 15  1  0  0  0  0
  2 14  2  0  0  0  0
  3 16  1  0  0  0  0
  3 38  1  0  0  0  0
  4 17  1  0  0  0  0
  4 39  1  0  0  0  0
  5 18  1  0  0  0  0
  5 40  1  0  0  0  0
  6 17  2  0  0  0  0
  7  8  1  0  0  0  0
  7  9  1  0  0  0  0
  7 19  1  0  0  0  0
  7 20  1  0  0  0  0
  8 10  1  0  0  0  0
  8 21  1  0  0  0  0
  8 22  1  0  0  0  0
  9 11  1  0  0  0  0
  9 23  1  0  0  0  0
  9 24  1  0  0  0  0
 10 12  1  0  0  0  0
 10 25  1  0  0  0  0
 10 26  1  0  0  0  0
 11 13  1  0  0  0  0
 11 27  1  0  0  0  0
 11 28  1  0  0  0  0
 12 14  1  0  0  0  0
 12 29  1  0  0  0  0
 12 30  1  0  0  0  0
 13 17  1  0  0  0  0
 13 31  1  0  0  0  0
 13 32  1  0  0  0  0
 15 16  1  0  0  0  0
 15 33  1  0  0  0  0
 15 34  1  0  0  0  0
 16 18  1  0  0  0  0
 16 35  1  0  0  0  0
 18 36  1  0  0  0  0
 18 37  1  0  0  0  0
M  END
> <PUBCHEM_COMPOUND_CID>
45783154

> <PUBCHEM_COMPOUND_CANONICALIZED>
1

> <PUBCHEM_CACTVS_COMPLEXITY>
241

> <PUBCHEM_CACTVS_HBOND_ACCEPTOR>
6

> <PUBCHEM_CACTVS_HBOND_DONOR>
3

> <PUBCHEM_CACTVS_ROTATABLE_BOND>
12

> <PUBCHEM_CACTVS_SUBSKEYS>
AAADceBwOAAAAAAAAAAAAAAAAAAAAAAAAAAAAAAAAAAAAAAAAAAAGgAACAAACBSggAIACAAABgAIAACQCAAAAAAAAAAAAAEAAAABEBIAAAACQAAFAAADAAGIyKCAAAAAAAAAAAAAAAAAAAAAAAAAAAAAAA==

> <PUBCHEM_IUPAC_OPENEYE_NAME>
9-(2,3-dihydroxypropoxy)-9-oxo-nonanoic acid

> <PUBCHEM_IUPAC_CAS_NAME>
9-(2,3-dihydroxypropoxy)-9-oxononanoic acid

> <PUBCHEM_IUPAC_NAME_MARKUP>
9-(2,3-dihydroxypropoxy)-9-oxononanoic acid

> <PUBCHEM_IUPAC_NAME>
9-(2,3-dihydroxypropoxy)-9-oxononanoic acid

> <PUBCHEM_IUPAC_SYSTEMATIC_NAME>
9-[2,3-bis(oxidanyl)propoxy]-9-oxidanylidene-nonanoic acid

> <PUBCHEM_IUPAC_TRADITIONAL_NAME>
9-glyceryloxy-9-keto-pelargonic acid

> <PUBCHEM_IUPAC_INCHI>
InChI=1S/C12H22O6/c13-8-10(14)9-18-12(17)7-5-3-1-2-4-6-11(15)16/h10,13-14H,1-9H2,(H,15,16)

> <PUBCHEM_IUPAC_INCHIKEY>
BQRISQXLSXCXSC-UHFFFAOYSA-N

> <PUBCHEM_XLOGP3>
0.8

> <PUBCHEM_EXACT_MASS>
262.14163842

> <PUBCHEM_MOLECULAR_FORMULA>
C12H22O6

> <PUBCHEM_MOLECULAR_WEIGHT>
262.30

> <PUBCHEM_OPENEYE_CAN_SMILES>
C(CCCC(=O)O)CCCC(=O)OCC(CO)O

> <PUBCHEM_OPENEYE_ISO_SMILES>
C(CCCC(=O)O)CCCC(=O)OCC(CO)O

> <PUBCHEM_CACTVS_TPSA>
104

> <PUBCHEM_MONOISOTOPIC_WEIGHT>
262.14163842

> <PUBCHEM_TOTAL_CHARGE>
0

> <PUBCHEM_HEAVY_ATOM_COUNT>
18

> <PUBCHEM_ATOM_DEF_STEREO_COUNT>
0

> <PUBCHEM_ATOM_UDEF_STEREO_COUNT>
1

> <PUBCHEM_BOND_DEF_STEREO_COUNT>
0

> <PUBCHEM_BOND_UDEF_STEREO_COUNT>
0

> <PUBCHEM_ISOTOPIC_ATOM_COUNT>
0

> <PUBCHEM_COMPONENT_COUNT>
1

> <PUBCHEM_CACTVS_TAUTO_COUNT>
-1

> <PUBCHEM_COORDINATE_TYPE>
1
5
255

> <PUBCHEM_BONDANNOTATIONS>
16  3  3

$$$$
