 
  -OEChem-10192104362D

 71 77  0     1  0  0  0  0  0999 V2000
    7.2960   -0.5000    0.0000 P   0  0  0  0  0  0  0  0  0  0  0  0
    6.3010    1.1671    0.0000 O   0  0  0  0  0  0  0  0  0  0  0  0
    4.4887   -1.9718    0.0000 O   0  0  0  0  0  0  0  0  0  0  0  0
    4.9071    1.9718    0.0000 O   0  0  0  0  0  0  0  0  0  0  0  0
    3.0949   -1.1671    0.0000 O   0  0  0  0  0  0  0  0  0  0  0  0
    6.4300   -1.0000    0.0000 O   0  0  0  0  0  0  0  0  0  0  0  0
    2.9659    1.0000    0.0000 O   0  0  0  0  0  0  0  0  0  0  0  0
    8.2848   -0.6490    0.0000 O   0  0  0  0  0  0  0  0  0  0  0  0
    6.7960    0.3660    0.0000 O   0  0  0  0  0  0  0  0  0  0  0  0
    7.1470   -1.4888    0.0000 O   0  0  0  0  0  0  0  0  0  0  0  0
    5.5640    0.5000    0.0000 C   0  0  2  0  0  0  0  0  0  0  0  0
    4.6979   -1.0000    0.0000 C   0  0  1  0  0  0  0  0  0  0  0  0
    4.6979    1.0000    0.0000 C   0  0  2  0  0  0  0  0  0  0  0  0
    3.8319   -0.5000    0.0000 C   0  0  2  0  0  0  0  0  0  0  0  0
    5.5640   -0.5000    0.0000 C   0  0  0  0  0  0  0  0  0  0  0  0
    3.8319    0.5000    0.0000 C   0  0  0  0  0  0  0  0  0  0  0  0
    5.8958    2.0749    0.0000 C   0  0  0  0  0  0  0  0  0  0  0  0
    3.5000   -2.0749    0.0000 C   0  0  0  0  0  0  0  0  0  0  0  0
    5.3958    2.9409    0.0000 C   0  0  0  0  0  0  0  0  0  0  0  0
    6.8958    2.0749    0.0000 C   0  0  0  0  0  0  0  0  0  0  0  0
    4.0000   -2.9409    0.0000 C   0  0  0  0  0  0  0  0  0  0  0  0
    2.5000   -2.0749    0.0000 C   0  0  0  0  0  0  0  0  0  0  0  0
    5.8958    3.8069    0.0000 C   0  0  0  0  0  0  0  0  0  0  0  0
    7.3958    2.9409    0.0000 C   0  0  0  0  0  0  0  0  0  0  0  0
    3.5000   -3.8069    0.0000 C   0  0  0  0  0  0  0  0  0  0  0  0
    2.0000   -2.9409    0.0000 C   0  0  0  0  0  0  0  0  0  0  0  0
    6.8958    3.8069    0.0000 C   0  0  0  0  0  0  0  0  0  0  0  0
    2.5000   -3.8069    0.0000 C   0  0  0  0  0  0  0  0  0  0  0  0
    9.0179    0.0311    0.0000 C   0  0  0  0  0  0  0  0  0  0  0  0
    7.1613    1.2969    0.0000 C   0  0  0  0  0  0  0  0  0  0  0  0
    8.9432    1.0283    0.0000 C   0  0  0  0  0  0  0  0  0  0  0  0
    8.1169    1.5916    0.0000 C   0  0  0  0  0  0  0  0  0  0  0  0
    9.8885    1.4658    0.0000 C   0  0  0  0  0  0  0  0  0  0  0  0
    8.1787    2.6314    0.0000 C   0  0  0  0  0  0  0  0  0  0  0  0
    9.9743    2.5038    0.0000 C   0  0  0  0  0  0  0  0  0  0  0  0
    9.1137    3.0906    0.0000 C   0  0  0  0  0  0  0  0  0  0  0  0
    6.3409    0.1553    0.0000 H   0  0  0  0  0  0  0  0  0  0  0  0
    5.3849   -1.5005    0.0000 H   0  0  0  0  0  0  0  0  0  0  0  0
    4.0109    1.5005    0.0000 H   0  0  0  0  0  0  0  0  0  0  0  0
    3.0549   -0.1553    0.0000 H   0  0  0  0  0  0  0  0  0  0  0  0
    5.5640   -1.1200    0.0000 H   0  0  0  0  0  0  0  0  0  0  0  0
    3.2950    0.1900    0.0000 H   0  0  0  0  0  0  0  0  0  0  0  0
    4.9209    3.3394    0.0000 H   0  0  0  0  0  0  0  0  0  0  0  0
    4.9209    2.5424    0.0000 H   0  0  0  0  0  0  0  0  0  0  0  0
    6.7882    1.4643    0.0000 H   0  0  0  0  0  0  0  0  0  0  0  0
    7.4785    1.8628    0.0000 H   0  0  0  0  0  0  0  0  0  0  0  0
    4.4750   -3.3394    0.0000 H   0  0  0  0  0  0  0  0  0  0  0  0
    4.4750   -2.5424    0.0000 H   0  0  0  0  0  0  0  0  0  0  0  0
    2.6077   -1.4643    0.0000 H   0  0  0  0  0  0  0  0  0  0  0  0
    1.9174   -1.8628    0.0000 H   0  0  0  0  0  0  0  0  0  0  0  0
    6.0035    4.4175    0.0000 H   0  0  0  0  0  0  0  0  0  0  0  0
    5.3132    4.0190    0.0000 H   0  0  0  0  0  0  0  0  0  0  0  0
    7.8708    2.5424    0.0000 H   0  0  0  0  0  0  0  0  0  0  0  0
    7.8708    3.3394    0.0000 H   0  0  0  0  0  0  0  0  0  0  0  0
    3.3923   -4.4175    0.0000 H   0  0  0  0  0  0  0  0  0  0  0  0
    4.0826   -4.0190    0.0000 H   0  0  0  0  0  0  0  0  0  0  0  0
    1.5250   -2.5424    0.0000 H   0  0  0  0  0  0  0  0  0  0  0  0
    1.5250   -3.3394    0.0000 H   0  0  0  0  0  0  0  0  0  0  0  0
    7.4785    4.0190    0.0000 H   0  0  0  0  0  0  0  0  0  0  0  0
    6.7882    4.4175    0.0000 H   0  0  0  0  0  0  0  0  0  0  0  0
    1.9174   -4.0190    0.0000 H   0  0  0  0  0  0  0  0  0  0  0  0
    2.6077   -4.4175    0.0000 H   0  0  0  0  0  0  0  0  0  0  0  0
    2.4289    0.6900    0.0000 H   0  0  0  0  0  0  0  0  0  0  0  0
    9.3279   -0.5058    0.0000 H   0  0  0  0  0  0  0  0  0  0  0  0
    9.6103    0.2139    0.0000 H   0  0  0  0  0  0  0  0  0  0  0  0
    7.1150    1.9152    0.0000 H   0  0  0  0  0  0  0  0  0  0  0  0
    6.5483    1.3893    0.0000 H   0  0  0  0  0  0  0  0  0  0  0  0
   10.3967    1.1106    0.0000 H   0  0  0  0  0  0  0  0  0  0  0  0
    7.6625    2.9748    0.0000 H   0  0  0  0  0  0  0  0  0  0  0  0
   10.5340    2.7707    0.0000 H   0  0  0  0  0  0  0  0  0  0  0  0
    9.1576    3.7091    0.0000 H   0  0  0  0  0  0  0  0  0  0  0  0
  1  6  1  0  0  0  0
  1  8  1  0  0  0  0
  1  9  1  0  0  0  0
  1 10  2  0  0  0  0
  2 11  1  0  0  0  0
  2 17  1  0  0  0  0
  3 12  1  0  0  0  0
  3 18  1  0  0  0  0
  4 13  1  0  0  0  0
  4 17  1  0  0  0  0
  5 14  1  0  0  0  0
  5 18  1  0  0  0  0
  6 15  1  0  0  0  0
  7 16  1  0  0  0  0
  7 63  1  0  0  0  0
  8 29  1  0  0  0  0
  9 30  1  0  0  0  0
 11 13  1  0  0  0  0
 11 15  1  0  0  0  0
 11 37  1  6  0  0  0
 12 14  1  0  0  0  0
 12 15  1  0  0  0  0
 12 38  1  6  0  0  0
 13 16  1  0  0  0  0
 13 39  1  1  0  0  0
 14 16  1  0  0  0  0
 14 40  1  6  0  0  0
 15 41  1  0  0  0  0
 16 42  1  0  0  0  0
 17 19  1  0  0  0  0
 17 20  1  0  0  0  0
 18 21  1  0  0  0  0
 18 22  1  0  0  0  0
 19 23  1  0  0  0  0
 19 43  1  0  0  0  0
 19 44  1  0  0  0  0
 20 24  1  0  0  0  0
 20 45  1  0  0  0  0
 20 46  1  0  0  0  0
 21 25  1  0  0  0  0
 21 47  1  0  0  0  0
 21 48  1  0  0  0  0
 22 26  1  0  0  0  0
 22 49  1  0  0  0  0
 22 50  1  0  0  0  0
 23 27  1  0  0  0  0
 23 51  1  0  0  0  0
 23 52  1  0  0  0  0
 24 27  1  0  0  0  0
 24 53  1  0  0  0  0
 24 54  1  0  0  0  0
 25 28  1  0  0  0  0
 25 55  1  0  0  0  0
 25 56  1  0  0  0  0
 26 28  1  0  0  0  0
 26 57  1  0  0  0  0
 26 58  1  0  0  0  0
 27 59  1  0  0  0  0
 27 60  1  0  0  0  0
 28 61  1  0  0  0  0
 28 62  1  0  0  0  0
 29 31  1  0  0  0  0
 29 64  1  0  0  0  0
 29 65  1  0  0  0  0
 30 32  1  0  0  0  0
 30 66  1  0  0  0  0
 30 67  1  0  0  0  0
 31 32  1  0  0  0  0
 31 33  2  0  0  0  0
 32 34  2  0  0  0  0
 33 35  1  0  0  0  0
 33 68  1  0  0  0  0
 34 36  1  0  0  0  0
 34 69  1  0  0  0  0
 35 36  2  0  0  0  0
 35 70  1  0  0  0  0
 36 71  1  0  0  0  0
M  END
> <PUBCHEM_COMPOUND_CID>
69905256

> <PUBCHEM_COMPOUND_CANONICALIZED>
1

> <PUBCHEM_CACTVS_COMPLEXITY>
794

> <PUBCHEM_CACTVS_HBOND_ACCEPTOR>
9

> <PUBCHEM_CACTVS_HBOND_DONOR>
1

> <PUBCHEM_CACTVS_ROTATABLE_BOND>
2

> <PUBCHEM_CACTVS_SUBSKEYS>
AAADcfB4PAIAAAAAAAAAAAAAAAAAASJAAAAwYMGABIAAAEgBAAAAGgAACCAADBSgmAIwCIAABxCAQiBCAIACAAAgAAAIiAAACIgZNiKAERCicAAlwAEPiAfA4KwOgAAAAAAQAAACAAAQACCAAAAAAAAAAA==

> <PUBCHEM_IUPAC_INCHI>
InChI=1S/C26H35O9P/c27-19-20-22(33-25(31-20)11-5-1-6-12-25)24(23-21(19)32-26(34-23)13-7-2-8-14-26)35-36(28)29-15-17-9-3-4-10-18(17)16-30-36/h3-4,9-10,19-24,27H,1-2,5-8,11-16H2/t19?,20-,21-,22-,23+,24?/m0/s1

> <PUBCHEM_IUPAC_INCHIKEY>
LHACDCXBJUJBAB-RHAZQQJDSA-N

> <PUBCHEM_XLOGP3_AA>
2.5

> <PUBCHEM_EXACT_MASS>
522.20186969

> <PUBCHEM_MOLECULAR_FORMULA>
C26H35O9P

> <PUBCHEM_MOLECULAR_WEIGHT>
522.5

> <PUBCHEM_OPENEYE_CAN_SMILES>
C1CCC2(CC1)OC3C(C4C(C(C3O2)OP5(=O)OCC6=CC=CC=C6CO5)OC7(O4)CCCCC7)O

> <PUBCHEM_OPENEYE_ISO_SMILES>
C1CCC2(CC1)O[C@@H]3[C@@H](O2)C([C@@H]4[C@H](C3O)OC5(O4)CCCCC5)OP6(=O)OCC7=CC=CC=C7CO6

> <PUBCHEM_CACTVS_TPSA>
102

> <PUBCHEM_MONOISOTOPIC_WEIGHT>
522.20186969

> <PUBCHEM_TOTAL_CHARGE>
0

> <PUBCHEM_HEAVY_ATOM_COUNT>
36

> <PUBCHEM_ATOM_DEF_STEREO_COUNT>
4

> <PUBCHEM_ATOM_UDEF_STEREO_COUNT>
0

> <PUBCHEM_BOND_DEF_STEREO_COUNT>
0

> <PUBCHEM_BOND_UDEF_STEREO_COUNT>
0

> <PUBCHEM_ISOTOPIC_ATOM_COUNT>
0

> <PUBCHEM_COMPONENT_COUNT>
1

> <PUBCHEM_CACTVS_TAUTO_COUNT>
-1

> <PUBCHEM_COORDINATE_TYPE>
1
5
255

> <PUBCHEM_BONDANNOTATIONS>
11  37  6
12  38  6
13  39  5
14  40  6
31  32  8
31  33  8
32  34  8
33  35  8
34  36  8
35  36  8

$$$$
