 
  -OEChem-10192104432D

 72 71  0     1  0  0  0  0  0999 V2000
   14.1244    1.5000    0.0000 O   0  0  0  0  0  0  0  0  0  0  0  0
   16.7224    2.0000    0.0000 O   0  0  0  0  0  0  0  0  0  0  0  0
   14.9904    0.0000    0.0000 O   0  0  0  0  0  0  0  0  0  0  0  0
    8.0622    2.0000    0.0000 O   0  0  0  0  0  0  0  0  0  0  0  0
    5.4641    1.5000    0.0000 O   0  0  0  0  0  0  0  0  0  0  0  0
   13.2583    3.0000    0.0000 O   0  0  0  0  0  0  0  0  0  0  0  0
    8.9282    0.5000    0.0000 O   0  0  0  0  0  0  0  0  0  0  0  0
   17.5885    0.5000    0.0000 O   0  0  0  0  0  0  0  0  0  0  0  0
   15.8564   -1.5000    0.0000 O   0  0  0  0  0  0  0  0  0  0  0  0
   11.5263    2.0000    0.0000 C   0  0  0  0  0  0  0  0  0  0  0  0
   10.6603    1.5000    0.0000 C   0  0  0  0  0  0  0  0  0  0  0  0
   15.8564    1.5000    0.0000 C   0  0  3  0  0  0  0  0  0  0  0  0
   12.3923    1.5000    0.0000 C   0  0  0  0  0  0  0  0  0  0  0  0
    9.7942    2.0000    0.0000 C   0  0  0  0  0  0  0  0  0  0  0  0
   14.9904    2.0000    0.0000 C   0  0  0  0  0  0  0  0  0  0  0  0
   15.8564    0.5000    0.0000 C   0  0  0  0  0  0  0  0  0  0  0  0
   13.2583    2.0000    0.0000 C   0  0  0  0  0  0  0  0  0  0  0  0
    8.9282    1.5000    0.0000 C   0  0  0  0  0  0  0  0  0  0  0  0
    3.7320    1.5000    0.0000 C   0  0  0  0  0  0  0  0  0  0  0  0
   18.4545    2.0000    0.0000 C   0  0  0  0  0  0  0  0  0  0  0  0
    4.5981    2.0000    0.0000 C   0  0  0  0  0  0  0  0  0  0  0  0
   17.5885    1.5000    0.0000 C   0  0  0  0  0  0  0  0  0  0  0  0
    2.8660    2.0000    0.0000 C   0  0  0  0  0  0  0  0  0  0  0  0
    7.1962    1.5000    0.0000 C   0  0  0  0  0  0  0  0  0  0  0  0
    6.3301    2.0000    0.0000 C   0  0  0  0  0  0  0  0  0  0  0  0
   19.3205    1.5000    0.0000 C   0  0  0  0  0  0  0  0  0  0  0  0
   14.1244   -1.5000    0.0000 C   0  0  0  0  0  0  0  0  0  0  0  0
   14.9904   -1.0000    0.0000 C   0  0  0  0  0  0  0  0  0  0  0  0
   14.1244   -2.5000    0.0000 C   0  0  0  0  0  0  0  0  0  0  0  0
    2.0000    1.5000    0.0000 C   0  0  0  0  0  0  0  0  0  0  0  0
   20.1865    2.0000    0.0000 C   0  0  0  0  0  0  0  0  0  0  0  0
   13.2583   -3.0000    0.0000 C   0  0  0  0  0  0  0  0  0  0  0  0
   11.9248    2.4750    0.0000 H   0  0  0  0  0  0  0  0  0  0  0  0
   11.1278    2.4750    0.0000 H   0  0  0  0  0  0  0  0  0  0  0  0
   10.2617    1.0250    0.0000 H   0  0  0  0  0  0  0  0  0  0  0  0
   11.0588    1.0250    0.0000 H   0  0  0  0  0  0  0  0  0  0  0  0
   16.3933    1.1900    0.0000 H   0  0  0  0  0  0  0  0  0  0  0  0
   11.9938    1.0250    0.0000 H   0  0  0  0  0  0  0  0  0  0  0  0
   12.7908    1.0250    0.0000 H   0  0  0  0  0  0  0  0  0  0  0  0
   10.1928    2.4750    0.0000 H   0  0  0  0  0  0  0  0  0  0  0  0
    9.3957    2.4750    0.0000 H   0  0  0  0  0  0  0  0  0  0  0  0
   15.3889    2.4750    0.0000 H   0  0  0  0  0  0  0  0  0  0  0  0
   14.5919    2.4750    0.0000 H   0  0  0  0  0  0  0  0  0  0  0  0
   16.0685   -0.0826    0.0000 H   0  0  0  0  0  0  0  0  0  0  0  0
   16.4670    0.6077    0.0000 H   0  0  0  0  0  0  0  0  0  0  0  0
    3.3335    1.0250    0.0000 H   0  0  0  0  0  0  0  0  0  0  0  0
    4.1306    1.0250    0.0000 H   0  0  0  0  0  0  0  0  0  0  0  0
   18.8530    2.4750    0.0000 H   0  0  0  0  0  0  0  0  0  0  0  0
   18.0560    2.4750    0.0000 H   0  0  0  0  0  0  0  0  0  0  0  0
    4.9966    2.4750    0.0000 H   0  0  0  0  0  0  0  0  0  0  0  0
    4.1996    2.4750    0.0000 H   0  0  0  0  0  0  0  0  0  0  0  0
    3.2646    2.4750    0.0000 H   0  0  0  0  0  0  0  0  0  0  0  0
    2.4675    2.4750    0.0000 H   0  0  0  0  0  0  0  0  0  0  0  0
    6.7976    1.0250    0.0000 H   0  0  0  0  0  0  0  0  0  0  0  0
    7.5947    1.0250    0.0000 H   0  0  0  0  0  0  0  0  0  0  0  0
    6.7287    2.4750    0.0000 H   0  0  0  0  0  0  0  0  0  0  0  0
    5.9316    2.4750    0.0000 H   0  0  0  0  0  0  0  0  0  0  0  0
   18.9220    1.0250    0.0000 H   0  0  0  0  0  0  0  0  0  0  0  0
   19.7190    1.0250    0.0000 H   0  0  0  0  0  0  0  0  0  0  0  0
   13.9123   -0.9174    0.0000 H   0  0  0  0  0  0  0  0  0  0  0  0
   13.5138   -1.6077    0.0000 H   0  0  0  0  0  0  0  0  0  0  0  0
   14.3364   -3.0826    0.0000 H   0  0  0  0  0  0  0  0  0  0  0  0
   14.7349   -2.3923    0.0000 H   0  0  0  0  0  0  0  0  0  0  0  0
    1.6900    2.0369    0.0000 H   0  0  0  0  0  0  0  0  0  0  0  0
    1.4631    1.1900    0.0000 H   0  0  0  0  0  0  0  0  0  0  0  0
    2.3100    0.9631    0.0000 H   0  0  0  0  0  0  0  0  0  0  0  0
   20.4965    1.4631    0.0000 H   0  0  0  0  0  0  0  0  0  0  0  0
   20.7235    2.3100    0.0000 H   0  0  0  0  0  0  0  0  0  0  0  0
   19.8765    2.5369    0.0000 H   0  0  0  0  0  0  0  0  0  0  0  0
   12.9483   -2.4631    0.0000 H   0  0  0  0  0  0  0  0  0  0  0  0
   12.7214   -3.3100    0.0000 H   0  0  0  0  0  0  0  0  0  0  0  0
   13.5683   -3.5369    0.0000 H   0  0  0  0  0  0  0  0  0  0  0  0
  1 15  1  0  0  0  0
  1 17  1  0  0  0  0
  2 12  1  0  0  0  0
  2 22  1  0  0  0  0
  3 16  1  0  0  0  0
  3 28  1  0  0  0  0
  4 18  1  0  0  0  0
  4 24  1  0  0  0  0
  5 21  1  0  0  0  0
  5 25  1  0  0  0  0
  6 17  2  0  0  0  0
  7 18  2  0  0  0  0
  8 22  2  0  0  0  0
  9 28  2  0  0  0  0
 10 11  1  0  0  0  0
 10 13  1  0  0  0  0
 10 33  1  0  0  0  0
 10 34  1  0  0  0  0
 11 14  1  0  0  0  0
 11 35  1  0  0  0  0
 11 36  1  0  0  0  0
 12 15  1  0  0  0  0
 12 16  1  0  0  0  0
 12 37  1  0  0  0  0
 13 17  1  0  0  0  0
 13 38  1  0  0  0  0
 13 39  1  0  0  0  0
 14 18  1  0  0  0  0
 14 40  1  0  0  0  0
 14 41  1  0  0  0  0
 15 42  1  0  0  0  0
 15 43  1  0  0  0  0
 16 44  1  0  0  0  0
 16 45  1  0  0  0  0
 19 21  1  0  0  0  0
 19 23  1  0  0  0  0
 19 46  1  0  0  0  0
 19 47  1  0  0  0  0
 20 22  1  0  0  0  0
 20 26  1  0  0  0  0
 20 48  1  0  0  0  0
 20 49  1  0  0  0  0
 21 50  1  0  0  0  0
 21 51  1  0  0  0  0
 23 30  1  0  0  0  0
 23 52  1  0  0  0  0
 23 53  1  0  0  0  0
 24 25  1  0  0  0  0
 24 54  1  0  0  0  0
 24 55  1  0  0  0  0
 25 56  1  0  0  0  0
 25 57  1  0  0  0  0
 26 31  1  0  0  0  0
 26 58  1  0  0  0  0
 26 59  1  0  0  0  0
 27 28  1  0  0  0  0
 27 29  1  0  0  0  0
 27 60  1  0  0  0  0
 27 61  1  0  0  0  0
 29 32  1  0  0  0  0
 29 62  1  0  0  0  0
 29 63  1  0  0  0  0
 30 64  1  0  0  0  0
 30 65  1  0  0  0  0
 30 66  1  0  0  0  0
 31 67  1  0  0  0  0
 31 68  1  0  0  0  0
 31 69  1  0  0  0  0
 32 70  1  0  0  0  0
 32 71  1  0  0  0  0
 32 72  1  0  0  0  0
M  END
> <PUBCHEM_COMPOUND_CID>
87834821

> <PUBCHEM_COMPOUND_CANONICALIZED>
1

> <PUBCHEM_CACTVS_COMPLEXITY>
534

> <PUBCHEM_CACTVS_HBOND_ACCEPTOR>
9

> <PUBCHEM_CACTVS_HBOND_DONOR>
0

> <PUBCHEM_CACTVS_ROTATABLE_BOND>
24

> <PUBCHEM_CACTVS_SUBSKEYS>
AAADcfB4PAAAAAAAAAAAAAAAAAAAAAAAAAAAAAAAAAAAAAAAAAAAGgAAAAAACBSggAICCAAABAAIAACQCAAAAAAAAAAAAAEAAAABABIAAAACAAAFAAACAAGISAAAAAAAAAAAAAAAAAAAAAAAAAAAAAAAAA==

> <PUBCHEM_IUPAC_OPENEYE_NAME>
O1-(2-butoxyethyl) O6-[2,3-di(butanoyloxy)propyl] hexanedioate

> <PUBCHEM_IUPAC_CAS_NAME>
hexanedioic acid O6-[2,3-bis(1-oxobutoxy)propyl] ester O1-(2-butoxyethyl) ester

> <PUBCHEM_IUPAC_NAME_MARKUP>
1-<I>O</I>-(2-butoxyethyl) 6-<I>O</I>-[2,3-di(butanoyloxy)propyl] hexanedioate

> <PUBCHEM_IUPAC_NAME>
1-O-(2-butoxyethyl) 6-O-[2,3-di(butanoyloxy)propyl] hexanedioate

> <PUBCHEM_IUPAC_SYSTEMATIC_NAME>
O1-(2-butoxyethyl) O6-[2,3-di(butanoyloxy)propyl] hexanedioate

> <PUBCHEM_IUPAC_TRADITIONAL_NAME>
adipic acid O1-(2-butoxyethyl) ester O6-(2,3-dibutyryloxypropyl) ester

> <PUBCHEM_IUPAC_INCHI>
InChI=1S/C23H40O9/c1-4-7-14-28-15-16-29-21(25)12-8-9-13-22(26)31-18-19(32-23(27)11-6-3)17-30-20(24)10-5-2/h19H,4-18H2,1-3H3

> <PUBCHEM_IUPAC_INCHIKEY>
WSQNCJLBJCAKCF-UHFFFAOYSA-N

> <PUBCHEM_XLOGP3_AA>
3.2

> <PUBCHEM_EXACT_MASS>
460.26723285

> <PUBCHEM_MOLECULAR_FORMULA>
C23H40O9

> <PUBCHEM_MOLECULAR_WEIGHT>
460.6

> <PUBCHEM_OPENEYE_CAN_SMILES>
CCCCOCCOC(=O)CCCCC(=O)OCC(COC(=O)CCC)OC(=O)CCC

> <PUBCHEM_OPENEYE_ISO_SMILES>
CCCCOCCOC(=O)CCCCC(=O)OCC(COC(=O)CCC)OC(=O)CCC

> <PUBCHEM_CACTVS_TPSA>
114

> <PUBCHEM_MONOISOTOPIC_WEIGHT>
460.26723285

> <PUBCHEM_TOTAL_CHARGE>
0

> <PUBCHEM_HEAVY_ATOM_COUNT>
32

> <PUBCHEM_ATOM_DEF_STEREO_COUNT>
0

> <PUBCHEM_ATOM_UDEF_STEREO_COUNT>
1

> <PUBCHEM_BOND_DEF_STEREO_COUNT>
0

> <PUBCHEM_BOND_UDEF_STEREO_COUNT>
0

> <PUBCHEM_ISOTOPIC_ATOM_COUNT>
0

> <PUBCHEM_COMPONENT_COUNT>
1

> <PUBCHEM_CACTVS_TAUTO_COUNT>
-1

> <PUBCHEM_COORDINATE_TYPE>
1
5
255

> <PUBCHEM_BONDANNOTATIONS>
12  16  3

$$$$
