 
  -OEChem-10192104152D

 81 86  0     1  0  0  0  0  0999 V2000
   10.2122   -3.3545    0.0000 P   0  0  3  0  0  0  0  0  0  0  0  0
   11.6135   -2.3364    0.0000 P   0  0  3  0  0  0  0  0  0  0  0  0
    7.3165   -5.3431    0.0000 O   0  0  0  0  0  0  0  0  0  0  0  0
    5.3678   -3.6407    0.0000 O   0  0  0  0  0  0  0  0  0  0  0  0
    7.3552   -2.7558    0.0000 O   0  0  0  0  0  0  0  0  0  0  0  0
    9.2177   -3.4590    0.0000 O   0  0  0  0  0  0  0  0  0  0  0  0
   11.2068   -3.2500    0.0000 O   0  0  0  0  0  0  0  0  0  0  0  0
   10.3168   -4.3490    0.0000 O   0  0  0  0  0  0  0  0  0  0  0  0
   10.1077   -2.3600    0.0000 O   0  0  0  0  0  0  0  0  0  0  0  0
    2.6260   -7.3323    0.0000 O   0  0  0  0  0  0  0  0  0  0  0  0
   12.0202   -1.4229    0.0000 O   0  0  0  0  0  0  0  0  0  0  0  0
   10.7000   -1.9297    0.0000 O   0  0  0  0  0  0  0  0  0  0  0  0
   12.5270   -2.7431    0.0000 O   0  0  0  0  0  0  0  0  0  0  0  0
   17.1022    2.2976    0.0000 O   0  0  0  0  0  0  0  0  0  0  0  0
    5.5952   -5.8043    0.0000 N   0  0  0  0  0  0  0  0  0  0  0  0
    4.7928   -7.1996    0.0000 N   0  0  0  0  0  0  0  0  0  0  0  0
    4.1215   -4.7316    0.0000 N   0  0  0  0  0  0  0  0  0  0  0  0
    2.6230   -5.6003    0.0000 N   0  0  0  0  0  0  0  0  0  0  0  0
    2.6200   -3.8682    0.0000 N   0  0  0  0  0  0  0  0  0  0  0  0
   14.5042    0.7976    0.0000 N   0  0  0  0  0  0  0  0  0  0  0  0
   16.2362    3.7976    0.0000 N   0  0  0  0  0  0  0  0  0  0  0  0
   12.9215    0.4612    0.0000 N   0  0  0  0  0  0  0  0  0  0  0  0
   13.5906    1.2044    0.0000 N   0  0  0  0  0  0  0  0  0  0  0  0
    6.2338   -4.1407    0.0000 C   0  0  2  0  0  0  0  0  0  0  0  0
    7.1473   -3.7339    0.0000 C   0  0  1  0  0  0  0  0  0  0  0  0
    6.3383   -5.1352    0.0000 C   0  0  3  0  0  0  0  0  0  0  0  0
    7.8165   -4.4771    0.0000 C   0  0  1  0  0  0  0  0  0  0  0  0
    8.8110   -4.3726    0.0000 C   0  0  0  0  0  0  0  0  0  0  0  0
    4.6230   -5.5968    0.0000 C   0  0  0  0  0  0  0  0  0  0  0  0
    5.6999   -6.7929    0.0000 C   0  0  0  0  0  0  0  0  0  0  0  0
    4.1245   -6.4637    0.0000 C   0  0  0  0  0  0  0  0  0  0  0  0
    3.1245   -6.4654    0.0000 C   0  0  0  0  0  0  0  0  0  0  0  0
    3.1215   -4.7334    0.0000 C   0  0  0  0  0  0  0  0  0  0  0  0
   13.0148   -1.3183    0.0000 C   0  0  0  0  0  0  0  0  0  0  0  0
   17.1022    5.2976    0.0000 C   0  0  0  0  0  0  0  0  0  0  0  0
   17.9683    5.7976    0.0000 C   0  0  0  0  0  0  0  0  0  0  0  0
   17.1022    4.2976    0.0000 C   0  0  0  0  0  0  0  0  0  0  0  0
   15.3702    1.2976    0.0000 C   0  0  0  0  0  0  0  0  0  0  0  0
   15.3702    2.2976    0.0000 C   0  0  0  0  0  0  0  0  0  0  0  0
   13.4215   -0.4048    0.0000 C   0  0  0  0  0  0  0  0  0  0  0  0
   17.9683    6.7976    0.0000 C   0  0  0  0  0  0  0  0  0  0  0  0
   14.3996   -0.1969    0.0000 C   0  0  0  0  0  0  0  0  0  0  0  0
   16.2362    2.7976    0.0000 C   0  0  0  0  0  0  0  0  0  0  0  0
   16.2362    5.7976    0.0000 C   0  0  0  0  0  0  0  0  0  0  0  0
   18.8622    5.2630    0.0000 C   0  0  0  0  0  0  0  0  0  0  0  0
   17.1022    7.2976    0.0000 C   0  0  0  0  0  0  0  0  0  0  0  0
   16.2362    6.7976    0.0000 C   0  0  0  0  0  0  0  0  0  0  0  0
   18.8622    7.3323    0.0000 C   0  0  0  0  0  0  0  0  0  0  0  0
   19.7683    5.7768    0.0000 C   0  0  0  0  0  0  0  0  0  0  0  0
   19.7683    6.8185    0.0000 C   0  0  0  0  0  0  0  0  0  0  0  0
    5.7138   -4.4784    0.0000 H   0  0  0  0  0  0  0  0  0  0  0  0
    6.6655   -3.3438    0.0000 H   0  0  0  0  0  0  0  0  0  0  0  0
    6.4988   -5.7341    0.0000 H   0  0  0  0  0  0  0  0  0  0  0  0
    8.1541   -4.9971    0.0000 H   0  0  0  0  0  0  0  0  0  0  0  0
    8.7677   -4.9910    0.0000 H   0  0  0  0  0  0  0  0  0  0  0  0
    9.4126   -4.5225    0.0000 H   0  0  0  0  0  0  0  0  0  0  0  0
    5.3678   -3.0207    0.0000 H   0  0  0  0  0  0  0  0  0  0  0  0
    6.8945   -2.3409    0.0000 H   0  0  0  0  0  0  0  0  0  0  0  0
    6.2374   -7.1019    0.0000 H   0  0  0  0  0  0  0  0  0  0  0  0
    2.0030   -5.6013    0.0000 H   0  0  0  0  0  0  0  0  0  0  0  0
   10.8832   -4.6012    0.0000 H   0  0  0  0  0  0  0  0  0  0  0  0
    2.0000   -3.8693    0.0000 H   0  0  0  0  0  0  0  0  0  0  0  0
    2.9291   -3.3307    0.0000 H   0  0  0  0  0  0  0  0  0  0  0  0
   12.9715   -1.9368    0.0000 H   0  0  0  0  0  0  0  0  0  0  0  0
   13.6163   -1.4683    0.0000 H   0  0  0  0  0  0  0  0  0  0  0  0
   17.3143    3.7150    0.0000 H   0  0  0  0  0  0  0  0  0  0  0  0
   17.7128    4.4053    0.0000 H   0  0  0  0  0  0  0  0  0  0  0  0
   10.6351   -1.3131    0.0000 H   0  0  0  0  0  0  0  0  0  0  0  0
   15.5823    0.7150    0.0000 H   0  0  0  0  0  0  0  0  0  0  0  0
   15.9808    1.4053    0.0000 H   0  0  0  0  0  0  0  0  0  0  0  0
   15.1581    2.8803    0.0000 H   0  0  0  0  0  0  0  0  0  0  0  0
   14.7596    2.1900    0.0000 H   0  0  0  0  0  0  0  0  0  0  0  0
   15.6993    4.1076    0.0000 H   0  0  0  0  0  0  0  0  0  0  0  0
   14.8604   -0.6117    0.0000 H   0  0  0  0  0  0  0  0  0  0  0  0
   15.6993    5.4876    0.0000 H   0  0  0  0  0  0  0  0  0  0  0  0
   18.8550    4.6430    0.0000 H   0  0  0  0  0  0  0  0  0  0  0  0
   17.1022    7.9176    0.0000 H   0  0  0  0  0  0  0  0  0  0  0  0
   15.6993    7.1076    0.0000 H   0  0  0  0  0  0  0  0  0  0  0  0
   18.8550    7.9523    0.0000 H   0  0  0  0  0  0  0  0  0  0  0  0
   20.3040    5.4648    0.0000 H   0  0  0  0  0  0  0  0  0  0  0  0
   20.3040    7.1305    0.0000 H   0  0  0  0  0  0  0  0  0  0  0  0
  1  6  1  0  0  0  0
  1  7  1  0  0  0  0
  1  8  1  0  0  0  0
  1  9  2  0  0  0  0
  2  7  1  0  0  0  0
  2 11  1  0  0  0  0
  2 12  1  0  0  0  0
  2 13  2  0  0  0  0
  3 26  1  0  0  0  0
  3 27  1  0  0  0  0
 24  4  1  6  0  0  0
  4 57  1  0  0  0  0
 25  5  1  6  0  0  0
  5 58  1  0  0  0  0
  6 28  1  0  0  0  0
  8 61  1  0  0  0  0
 10 32  2  0  0  0  0
 11 34  1  0  0  0  0
 12 68  1  0  0  0  0
 14 43  2  0  0  0  0
 15 26  1  0  0  0  0
 15 29  1  0  0  0  0
 15 30  1  0  0  0  0
 16 30  2  0  0  0  0
 16 31  1  0  0  0  0
 17 29  1  0  0  0  0
 17 33  2  0  0  0  0
 18 32  1  0  0  0  0
 18 33  1  0  0  0  0
 18 60  1  0  0  0  0
 19 33  1  0  0  0  0
 19 62  1  0  0  0  0
 19 63  1  0  0  0  0
 20 23  1  0  0  0  0
 20 38  1  0  0  0  0
 20 42  1  0  0  0  0
 21 37  1  0  0  0  0
 21 43  1  0  0  0  0
 21 73  1  0  0  0  0
 22 23  2  0  0  0  0
 22 40  1  0  0  0  0
 24 25  1  0  0  0  0
 24 26  1  0  0  0  0
 24 51  1  0  0  0  0
 25 27  1  0  0  0  0
 25 52  1  0  0  0  0
 26 53  1  0  0  0  0
 27 28  1  1  0  0  0
 27 54  1  0  0  0  0
 28 55  1  0  0  0  0
 28 56  1  0  0  0  0
 29 31  2  0  0  0  0
 30 59  1  0  0  0  0
 31 32  1  0  0  0  0
 34 40  1  0  0  0  0
 34 64  1  0  0  0  0
 34 65  1  0  0  0  0
 35 36  1  0  0  0  0
 35 37  1  0  0  0  0
 35 44  2  0  0  0  0
 36 41  1  0  0  0  0
 36 45  2  0  0  0  0
 37 66  1  0  0  0  0
 37 67  1  0  0  0  0
 38 39  1  0  0  0  0
 38 69  1  0  0  0  0
 38 70  1  0  0  0  0
 39 43  1  0  0  0  0
 39 71  1  0  0  0  0
 39 72  1  0  0  0  0
 40 42  2  0  0  0  0
 41 46  1  0  0  0  0
 41 48  2  0  0  0  0
 42 74  1  0  0  0  0
 44 47  1  0  0  0  0
 44 75  1  0  0  0  0
 45 49  1  0  0  0  0
 45 76  1  0  0  0  0
 46 47  2  0  0  0  0
 46 77  1  0  0  0  0
 47 78  1  0  0  0  0
 48 50  1  0  0  0  0
 48 79  1  0  0  0  0
 49 50  2  0  0  0  0
 49 80  1  0  0  0  0
 50 81  1  0  0  0  0
M  END
> <PUBCHEM_COMPOUND_CID>
135976426

> <PUBCHEM_COMPOUND_CANONICALIZED>
1

> <PUBCHEM_CACTVS_COMPLEXITY>
1370

> <PUBCHEM_CACTVS_HBOND_ACCEPTOR>
16

> <PUBCHEM_CACTVS_HBOND_DONOR>
7

> <PUBCHEM_CACTVS_ROTATABLE_BOND>
14

> <PUBCHEM_CACTVS_SUBSKEYS>
AAADceB7/AMAAAAAAAAAAAAAAAAAAWLEgAAwYIAAAAAAAEDB9AAAHgAYCCAADBzhngY9sNfMFxCqQzd3dISChC03kqAZ2IG4fMiLfCrA2TGeYIhvlwLbiGfwsMIOgAACAAAQAAAAAAQAACAAAAAAAAAAAA==

> <PUBCHEM_IUPAC_OPENEYE_NAME>
[[(2R,3S,4R)-5-(2-amino-6-oxo-1H-purin-9-yl)-3,4-dihydroxy-tetrahydrofuran-2-yl]methoxy-hydroxy-phosphoryl] [1-[3-(1-naphthylmethylamino)-3-oxo-propyl]triazol-4-yl]methyl hydrogen phosphate

> <PUBCHEM_IUPAC_CAS_NAME>
[[(2R,3S,4R)-5-(2-amino-6-oxo-1H-purin-9-yl)-3,4-dihydroxy-2-oxolanyl]methoxy-hydroxyphosphoryl] [1-[3-(1-naphthalenylmethylamino)-3-oxopropyl]-4-triazolyl]methyl hydrogen phosphate

> <PUBCHEM_IUPAC_NAME_MARKUP>
[[(2<I>R</I>,3<I>S</I>,4<I>R</I>)-5-(2-amino-6-oxo-1<I>H</I>-purin-9-yl)-3,4-dihydroxyoxolan-2-yl]methoxy-hydroxyphosphoryl] [1-[3-(naphthalen-1-ylmethylamino)-3-oxopropyl]triazol-4-yl]methyl hydrogen phosphate

> <PUBCHEM_IUPAC_NAME>
[[(2R,3S,4R)-5-(2-amino-6-oxo-1H-purin-9-yl)-3,4-dihydroxyoxolan-2-yl]methoxy-hydroxyphosphoryl] [1-[3-(naphthalen-1-ylmethylamino)-3-oxopropyl]triazol-4-yl]methyl hydrogen phosphate

> <PUBCHEM_IUPAC_SYSTEMATIC_NAME>
[[(2R,3S,4R)-5-(2-azanyl-6-oxidanylidene-1H-purin-9-yl)-3,4-bis(oxidanyl)oxolan-2-yl]methoxy-oxidanyl-phosphoryl] [1-[3-(naphthalen-1-ylmethylamino)-3-oxidanylidene-propyl]-1,2,3-triazol-4-yl]methyl hydrogen phosphate

> <PUBCHEM_IUPAC_TRADITIONAL_NAME>
[[(2R,3S,4R)-5-(2-amino-6-keto-1H-purin-9-yl)-3,4-dihydroxy-tetrahydrofuran-2-yl]methoxy-hydroxy-phosphoryl] [1-[3-keto-3-(1-naphthylmethylamino)propyl]triazol-4-yl]methyl hydrogen phosphate

> <PUBCHEM_IUPAC_INCHI>
InChI=1S/C27H31N9O12P2/c28-27-31-24-21(25(40)32-27)30-14-36(24)26-23(39)22(38)19(47-26)13-46-50(43,44)48-49(41,42)45-12-17-11-35(34-33-17)9-8-20(37)29-10-16-6-3-5-15-4-1-2-7-18(15)16/h1-7,11,14,19,22-23,26,38-39H,8-10,12-13H2,(H,29,37)(H,41,42)(H,43,44)(H3,28,31,32,40)/t19-,22-,23-,26?/m1/s1

> <PUBCHEM_IUPAC_INCHIKEY>
DNUNOKHUNRQYPM-MRAMLHFRSA-N

> <PUBCHEM_XLOGP3_AA>
-3.7

> <PUBCHEM_EXACT_MASS>
735.15674145

> <PUBCHEM_MOLECULAR_FORMULA>
C27H31N9O12P2

> <PUBCHEM_MOLECULAR_WEIGHT>
735.5

> <PUBCHEM_OPENEYE_CAN_SMILES>
C1=CC=C2C(=C1)C=CC=C2CNC(=O)CCN3C=C(N=N3)COP(=O)(O)OP(=O)(O)OCC4C(C(C(O4)N5C=NC6=C5N=C(NC6=O)N)O)O

> <PUBCHEM_OPENEYE_ISO_SMILES>
C1=CC=C2C(=C1)C=CC=C2CNC(=O)CCN3C=C(N=N3)COP(=O)(O)OP(=O)(O)OC[C@@H]4[C@H]([C@H](C(O4)N5C=NC6=C5N=C(NC6=O)N)O)O

> <PUBCHEM_CACTVS_TPSA>
297

> <PUBCHEM_MONOISOTOPIC_WEIGHT>
735.15674145

> <PUBCHEM_TOTAL_CHARGE>
0

> <PUBCHEM_HEAVY_ATOM_COUNT>
50

> <PUBCHEM_ATOM_DEF_STEREO_COUNT>
3

> <PUBCHEM_ATOM_UDEF_STEREO_COUNT>
1

> <PUBCHEM_BOND_DEF_STEREO_COUNT>
0

> <PUBCHEM_BOND_UDEF_STEREO_COUNT>
0

> <PUBCHEM_ISOTOPIC_ATOM_COUNT>
0

> <PUBCHEM_COMPONENT_COUNT>
1

> <PUBCHEM_CACTVS_TAUTO_COUNT>
-1

> <PUBCHEM_COORDINATE_TYPE>
1
5
255

> <PUBCHEM_BONDANNOTATIONS>
26  15  3
15  29  8
15  30  8
16  30  8
16  31  8
17  29  8
17  33  8
18  32  8
18  33  8
20  23  8
20  42  8
22  23  8
22  40  8
27  28  5
29  31  8
31  32  8
35  36  8
35  44  8
36  41  8
36  45  8
24  4  6
40  42  8
41  46  8
41  48  8
44  47  8
45  49  8
46  47  8
48  50  8
49  50  8
25  5  6

$$$$
