 
  -OEChem-10192103312D

 28 28  0     1  0  0  0  0  0999 V2000
    2.6443   -1.7176    0.0000 O   0  0  0  0  0  0  0  0  0  0  0  0
    4.5981    3.1302    0.0000 O   0  0  0  0  0  0  0  0  0  0  0  0
    2.8660    3.1302    0.0000 O   0  0  0  0  0  0  0  0  0  0  0  0
    5.4641    1.6302    0.0000 O   0  0  0  0  0  0  0  0  0  0  0  0
    2.0000    1.6302    0.0000 O   0  0  0  0  0  0  0  0  0  0  0  0
    4.0455   -2.7357    0.0000 O   0  0  0  0  0  0  0  0  0  0  0  0
    3.7320    0.6302    0.0000 C   0  0  3  0  0  0  0  0  0  0  0  0
    2.9230    0.0424    0.0000 C   0  0  0  0  0  0  0  0  0  0  0  0
    3.2320   -0.9086    0.0000 C   0  0  3  0  0  0  0  0  0  0  0  0
    3.7320    1.6302    0.0000 C   0  0  0  0  0  0  0  0  0  0  0  0
    4.5411    0.0424    0.0000 C   0  0  0  0  0  0  0  0  0  0  0  0
    4.2320   -0.9086    0.0000 C   0  0  0  0  0  0  0  0  0  0  0  0
    4.5981    2.1302    0.0000 C   0  0  0  0  0  0  0  0  0  0  0  0
    2.8660    2.1302    0.0000 C   0  0  0  0  0  0  0  0  0  0  0  0
    3.0510   -2.6312    0.0000 C   0  0  0  0  0  0  0  0  0  0  0  0
    2.4632   -3.4402    0.0000 C   0  0  0  0  0  0  0  0  0  0  0  0
    4.2845    0.9117    0.0000 H   0  0  0  0  0  0  0  0  0  0  0  0
    2.6130    0.5794    0.0000 H   0  0  0  0  0  0  0  0  0  0  0  0
    2.3566   -0.2098    0.0000 H   0  0  0  0  0  0  0  0  0  0  0  0
    3.5135   -1.4611    0.0000 H   0  0  0  0  0  0  0  0  0  0  0  0
    3.7320    2.2502    0.0000 H   0  0  0  0  0  0  0  0  0  0  0  0
    5.1307    0.2340    0.0000 H   0  0  0  0  0  0  0  0  0  0  0  0
    4.5965   -1.4102    0.0000 H   0  0  0  0  0  0  0  0  0  0  0  0
    5.1350    3.4402    0.0000 H   0  0  0  0  0  0  0  0  0  0  0  0
    2.3291    3.4402    0.0000 H   0  0  0  0  0  0  0  0  0  0  0  0
    1.9616   -3.0758    0.0000 H   0  0  0  0  0  0  0  0  0  0  0  0
    2.0988   -3.9418    0.0000 H   0  0  0  0  0  0  0  0  0  0  0  0
    2.9648   -3.8046    0.0000 H   0  0  0  0  0  0  0  0  0  0  0  0
  1  9  1  0  0  0  0
  1 15  1  0  0  0  0
  2 13  1  0  0  0  0
  2 24  1  0  0  0  0
  3 14  1  0  0  0  0
  3 25  1  0  0  0  0
  4 13  2  0  0  0  0
  5 14  2  0  0  0  0
  6 15  2  0  0  0  0
  7  8  1  0  0  0  0
  7 10  1  0  0  0  0
  7 11  1  0  0  0  0
  7 17  1  0  0  0  0
  8  9  1  0  0  0  0
  8 18  1  0  0  0  0
  8 19  1  0  0  0  0
  9 12  1  0  0  0  0
  9 20  1  0  0  0  0
 10 13  1  0  0  0  0
 10 14  1  0  0  0  0
 10 21  1  0  0  0  0
 11 12  2  0  0  0  0
 11 22  1  0  0  0  0
 12 23  1  0  0  0  0
 15 16  1  0  0  0  0
 16 26  1  0  0  0  0
 16 27  1  0  0  0  0
 16 28  1  0  0  0  0
M  END
> <PUBCHEM_COMPOUND_CID>
68874241

> <PUBCHEM_COMPOUND_CANONICALIZED>
1

> <PUBCHEM_CACTVS_COMPLEXITY>
331

> <PUBCHEM_CACTVS_HBOND_ACCEPTOR>
6

> <PUBCHEM_CACTVS_HBOND_DONOR>
2

> <PUBCHEM_CACTVS_ROTATABLE_BOND>
5

> <PUBCHEM_CACTVS_SUBSKEYS>
AAADccBwOAAAAAAAAAAAAAAAAAAAAQAAAAAAAAAAAAAAAAAAAAAAGgAACAAADRSggAICCAAABgCIACDSCAAAAAAgAAAICAEAAAgABBYIIQACUAAFoAAIIAOIbAxOgAAAAAAAAAAAAAAAAAAAAAAAAAAAAA==

> <PUBCHEM_IUPAC_OPENEYE_NAME>
2-(4-acetoxycyclopent-2-en-1-yl)propanedioic acid

> <PUBCHEM_IUPAC_CAS_NAME>
2-(4-acetyloxy-1-cyclopent-2-enyl)propanedioic acid

> <PUBCHEM_IUPAC_NAME_MARKUP>
2-(4-acetyloxycyclopent-2-en-1-yl)propanedioic acid

> <PUBCHEM_IUPAC_NAME>
2-(4-acetyloxycyclopent-2-en-1-yl)propanedioic acid

> <PUBCHEM_IUPAC_SYSTEMATIC_NAME>
2-(4-acetyloxycyclopent-2-en-1-yl)propanedioic acid

> <PUBCHEM_IUPAC_TRADITIONAL_NAME>
2-(4-acetoxycyclopent-2-en-1-yl)malonic acid

> <PUBCHEM_IUPAC_INCHI>
InChI=1S/C10H12O6/c1-5(11)16-7-3-2-6(4-7)8(9(12)13)10(14)15/h2-3,6-8H,4H2,1H3,(H,12,13)(H,14,15)

> <PUBCHEM_IUPAC_INCHIKEY>
FGDDXFHPOCCXGO-UHFFFAOYSA-N

> <PUBCHEM_XLOGP3_AA>
0.3

> <PUBCHEM_EXACT_MASS>
228.06338810

> <PUBCHEM_MOLECULAR_FORMULA>
C10H12O6

> <PUBCHEM_MOLECULAR_WEIGHT>
228.20

> <PUBCHEM_OPENEYE_CAN_SMILES>
CC(=O)OC1CC(C=C1)C(C(=O)O)C(=O)O

> <PUBCHEM_OPENEYE_ISO_SMILES>
CC(=O)OC1CC(C=C1)C(C(=O)O)C(=O)O

> <PUBCHEM_CACTVS_TPSA>
101

> <PUBCHEM_MONOISOTOPIC_WEIGHT>
228.06338810

> <PUBCHEM_TOTAL_CHARGE>
0

> <PUBCHEM_HEAVY_ATOM_COUNT>
16

> <PUBCHEM_ATOM_DEF_STEREO_COUNT>
0

> <PUBCHEM_ATOM_UDEF_STEREO_COUNT>
2

> <PUBCHEM_BOND_DEF_STEREO_COUNT>
0

> <PUBCHEM_BOND_UDEF_STEREO_COUNT>
0

> <PUBCHEM_ISOTOPIC_ATOM_COUNT>
0

> <PUBCHEM_COMPONENT_COUNT>
1

> <PUBCHEM_CACTVS_TAUTO_COUNT>
-1

> <PUBCHEM_COORDINATE_TYPE>
1
5
255

> <PUBCHEM_BONDANNOTATIONS>
9  1  3
7  10  3

$$$$
