 
  -OEChem-10192103382D

 36 37  0     1  0  0  0  0  0999 V2000
    9.5340   -2.0333    0.0000 O   0  0  0  0  0  0  0  0  0  0  0  0
    2.1916    2.2526    0.0000 O   0  0  0  0  0  0  0  0  0  0  0  0
    3.8389    2.7879    0.0000 O   0  0  0  0  0  0  0  0  0  0  0  0
    7.0041   -1.5333    0.0000 C   0  0  3  0  0  0  0  0  0  0  0  0
    7.0041   -2.5333    0.0000 C   0  0  3  0  0  0  0  0  0  0  0  0
    6.0531   -1.2243    0.0000 C   0  0  3  0  0  0  0  0  0  0  0  0
    6.0531   -2.8423    0.0000 C   0  0  0  0  0  0  0  0  0  0  0  0
    5.4653   -2.0333    0.0000 C   0  0  0  0  0  0  0  0  0  0  0  0
    7.9504   -1.2286    0.0000 C   0  0  0  0  0  0  0  0  0  0  0  0
    7.9504   -2.8380    0.0000 C   0  0  0  0  0  0  0  0  0  0  0  0
    5.7441   -0.2732    0.0000 C   0  0  0  0  0  0  0  0  0  0  0  0
    8.5340   -2.0333    0.0000 C   0  0  0  0  0  0  0  0  0  0  0  0
    4.7659   -0.0653    0.0000 C   0  0  0  0  0  0  0  0  0  0  0  0
    4.4569    0.8858    0.0000 C   0  0  0  0  0  0  0  0  0  0  0  0
    3.4788    1.0937    0.0000 C   0  0  0  0  0  0  0  0  0  0  0  0
    3.1697    2.0447    0.0000 C   0  0  0  0  0  0  0  0  0  0  0  0
    7.0050   -0.9133    0.0000 H   0  0  0  0  0  0  0  0  0  0  0  0
    7.0050   -3.1533    0.0000 H   0  0  0  0  0  0  0  0  0  0  0  0
    6.4915   -0.7859    0.0000 H   0  0  0  0  0  0  0  0  0  0  0  0
    5.5162   -3.1523    0.0000 H   0  0  0  0  0  0  0  0  0  0  0  0
    6.3053   -3.4087    0.0000 H   0  0  0  0  0  0  0  0  0  0  0  0
    5.0046   -1.6184    0.0000 H   0  0  0  0  0  0  0  0  0  0  0  0
    5.0046   -2.4481    0.0000 H   0  0  0  0  0  0  0  0  0  0  0  0
    8.4877   -0.9193    0.0000 H   0  0  0  0  0  0  0  0  0  0  0  0
    7.6993   -0.6616    0.0000 H   0  0  0  0  0  0  0  0  0  0  0  0
    7.6993   -3.4049    0.0000 H   0  0  0  0  0  0  0  0  0  0  0  0
    8.4877   -3.1472    0.0000 H   0  0  0  0  0  0  0  0  0  0  0  0
    6.3580   -0.1869    0.0000 H   0  0  0  0  0  0  0  0  0  0  0  0
    5.7657    0.3464    0.0000 H   0  0  0  0  0  0  0  0  0  0  0  0
    4.1520   -0.1516    0.0000 H   0  0  0  0  0  0  0  0  0  0  0  0
    4.7443   -0.6849    0.0000 H   0  0  0  0  0  0  0  0  0  0  0  0
    5.0709    0.9720    0.0000 H   0  0  0  0  0  0  0  0  0  0  0  0
    4.4785    1.5054    0.0000 H   0  0  0  0  0  0  0  0  0  0  0  0
    2.8648    1.0074    0.0000 H   0  0  0  0  0  0  0  0  0  0  0  0
    3.4571    0.4741    0.0000 H   0  0  0  0  0  0  0  0  0  0  0  0
    2.0000    2.8423    0.0000 H   0  0  0  0  0  0  0  0  0  0  0  0
  1 12  2  0  0  0  0
  2 16  1  0  0  0  0
  2 36  1  0  0  0  0
  3 16  2  0  0  0  0
  4  5  1  0  0  0  0
  4  6  1  0  0  0  0
  4  9  1  0  0  0  0
  4 17  1  0  0  0  0
  5  7  1  0  0  0  0
  5 10  1  0  0  0  0
  5 18  1  0  0  0  0
  6  8  1  0  0  0  0
  6 11  1  0  0  0  0
  6 19  1  0  0  0  0
  7  8  1  0  0  0  0
  7 20  1  0  0  0  0
  7 21  1  0  0  0  0
  8 22  1  0  0  0  0
  8 23  1  0  0  0  0
  9 12  1  0  0  0  0
  9 24  1  0  0  0  0
  9 25  1  0  0  0  0
 10 12  1  0  0  0  0
 10 26  1  0  0  0  0
 10 27  1  0  0  0  0
 11 13  1  0  0  0  0
 11 28  1  0  0  0  0
 11 29  1  0  0  0  0
 13 14  1  0  0  0  0
 13 30  1  0  0  0  0
 13 31  1  0  0  0  0
 14 15  1  0  0  0  0
 14 32  1  0  0  0  0
 14 33  1  0  0  0  0
 15 16  1  0  0  0  0
 15 34  1  0  0  0  0
 15 35  1  0  0  0  0
M  END
> <PUBCHEM_COMPOUND_CID>
15053048

> <PUBCHEM_COMPOUND_CANONICALIZED>
1

> <PUBCHEM_CACTVS_COMPLEXITY>
285

> <PUBCHEM_CACTVS_HBOND_ACCEPTOR>
3

> <PUBCHEM_CACTVS_HBOND_DONOR>
1

> <PUBCHEM_CACTVS_ROTATABLE_BOND>
5

> <PUBCHEM_CACTVS_SUBSKEYS>
AAADceBwMAAAAAAAAAAAAAAAAAAAAYMAAAAAAAAAAAAYAAAAAAAAGgAACAAADQSAgAAACAAAAgAIAICQCAAAAAAAAAAAAAEAAAAAABIAAAAAQAAEAAAAAAGIyOCOgAAAAAAAAAAAAAAAAAAAAQAACAAAAA==

> <PUBCHEM_IUPAC_OPENEYE_NAME>
5-(5-oxo-2,3,3a,4,6,6a-hexahydro-1H-pentalen-1-yl)pentanoic acid

> <PUBCHEM_IUPAC_CAS_NAME>
5-(5-oxo-2,3,3a,4,6,6a-hexahydro-1H-pentalen-1-yl)pentanoic acid

> <PUBCHEM_IUPAC_NAME_MARKUP>
5-(5-oxo-2,3,3<I>a</I>,4,6,6<I>a</I>-hexahydro-1<I>H</I>-pentalen-1-yl)pentanoic acid

> <PUBCHEM_IUPAC_NAME>
5-(5-oxo-2,3,3a,4,6,6a-hexahydro-1H-pentalen-1-yl)pentanoic acid

> <PUBCHEM_IUPAC_SYSTEMATIC_NAME>
5-(5-oxidanylidene-2,3,3a,4,6,6a-hexahydro-1H-pentalen-1-yl)pentanoic acid

> <PUBCHEM_IUPAC_TRADITIONAL_NAME>
5-(5-keto-2,3,3a,4,6,6a-hexahydro-1H-pentalen-1-yl)valeric acid

> <PUBCHEM_IUPAC_INCHI>
InChI=1S/C13H20O3/c14-11-7-10-6-5-9(12(10)8-11)3-1-2-4-13(15)16/h9-10,12H,1-8H2,(H,15,16)

> <PUBCHEM_IUPAC_INCHIKEY>
VIRPSEBUHFMJHC-UHFFFAOYSA-N

> <PUBCHEM_XLOGP3_AA>
2.2

> <PUBCHEM_EXACT_MASS>
224.14124450

> <PUBCHEM_MOLECULAR_FORMULA>
C13H20O3

> <PUBCHEM_MOLECULAR_WEIGHT>
224.30

> <PUBCHEM_OPENEYE_CAN_SMILES>
C1CC(C2C1CC(=O)C2)CCCCC(=O)O

> <PUBCHEM_OPENEYE_ISO_SMILES>
C1CC(C2C1CC(=O)C2)CCCCC(=O)O

> <PUBCHEM_CACTVS_TPSA>
54.4

> <PUBCHEM_MONOISOTOPIC_WEIGHT>
224.14124450

> <PUBCHEM_TOTAL_CHARGE>
0

> <PUBCHEM_HEAVY_ATOM_COUNT>
16

> <PUBCHEM_ATOM_DEF_STEREO_COUNT>
0

> <PUBCHEM_ATOM_UDEF_STEREO_COUNT>
3

> <PUBCHEM_BOND_DEF_STEREO_COUNT>
0

> <PUBCHEM_BOND_UDEF_STEREO_COUNT>
0

> <PUBCHEM_ISOTOPIC_ATOM_COUNT>
0

> <PUBCHEM_COMPONENT_COUNT>
1

> <PUBCHEM_CACTVS_TAUTO_COUNT>
-1

> <PUBCHEM_COORDINATE_TYPE>
1
5
255

> <PUBCHEM_BONDANNOTATIONS>
4  9  3
5  7  3
6  11  3

$$$$
