 
  -OEChem-10192103392D

 49 50  0     1  0  0  0  0  0999 V2000
    6.0819   -2.9004    0.0000 S   0  5  0  0  0  0  0  0  0  0  0  0
    6.8909   -2.3126    0.0000 P   0  3  3  0  0  0  0  0  0  0  0  0
    5.0298    0.1519    0.0000 O   0  0  0  0  0  0  0  0  0  0  0  0
    3.1330   -1.6082    0.0000 O   0  0  0  0  0  0  0  0  0  0  0  0
    2.4608    0.4609    0.0000 O   0  0  0  0  0  0  0  0  0  0  0  0
    6.3031   -1.5036    0.0000 O   0  0  0  0  0  0  0  0  0  0  0  0
    7.6999   -1.7249    0.0000 O   0  0  0  0  0  0  0  0  0  0  0  0
    5.9529    1.7397    0.0000 O   0  0  0  0  0  0  0  0  0  0  0  0
    4.2208    4.7397    0.0000 O   0  0  0  0  0  0  0  0  0  0  0  0
   10.0555   -3.7216    0.0000 O   0  3  0  0  0  2  0  0  0  0  0  0
    8.6543   -4.7397    0.0000 O   0  0  0  0  0  0  0  0  0  0  0  0
    4.2208    1.7397    0.0000 N   0  0  0  0  0  0  0  0  0  0  0  0
    5.0868    3.2397    0.0000 N   0  0  0  0  0  0  0  0  0  0  0  0
    7.4787   -3.1217    0.0000 N   0  0  0  0  0  0  0  0  0  0  0  0
    7.5954   -0.7303    0.0000 N   0  0  0  0  0  0  0  0  0  0  0  0
    3.7208   -0.7991    0.0000 C   0  0  1  0  0  0  0  0  0  0  0  0
    3.4118    0.1519    0.0000 C   0  0  2  0  0  0  0  0  0  0  0  0
    4.7208   -0.7991    0.0000 C   0  0  1  0  0  0  0  0  0  0  0  0
    4.2208    0.7397    0.0000 C   0  0  1  0  0  0  0  0  0  0  0  0
    5.3086   -1.6082    0.0000 C   0  0  0  0  0  0  0  0  0  0  0  0
    5.0868    2.2397    0.0000 C   0  0  0  0  0  0  0  0  0  0  0  0
    3.3548    2.2397    0.0000 C   0  0  0  0  0  0  0  0  0  0  0  0
    3.3548    3.2397    0.0000 C   0  0  0  0  0  0  0  0  0  0  0  0
    4.2208    3.7397    0.0000 C   0  0  0  0  0  0  0  0  0  0  0  0
    8.4732   -3.0171    0.0000 C   0  0  3  0  0  0  0  0  0  0  0  0
    8.8800   -2.1036    0.0000 C   0  0  0  0  0  0  0  0  0  0  0  0
    9.0610   -3.8262    0.0000 C   0  0  0  0  0  0  0  0  0  0  0  0
   10.6433   -4.5306    0.0000 C   0  0  0  0  0  0  0  0  0  0  0  0
    3.1085   -0.7022    0.0000 H   0  0  0  0  0  0  0  0  0  0  0  0
    2.9734   -0.2865    0.0000 H   0  0  0  0  0  0  0  0  0  0  0  0
    5.3332   -0.7022    0.0000 H   0  0  0  0  0  0  0  0  0  0  0  0
    3.6684    1.0212    0.0000 H   0  0  0  0  0  0  0  0  0  0  0  0
    4.7514   -1.8800    0.0000 H   0  0  0  0  0  0  0  0  0  0  0  0
    5.4795   -2.2041    0.0000 H   0  0  0  0  0  0  0  0  0  0  0  0
    3.3852   -2.1746    0.0000 H   0  0  0  0  0  0  0  0  0  0  0  0
    2.0000    0.0461    0.0000 H   0  0  0  0  0  0  0  0  0  0  0  0
    2.8179    1.9297    0.0000 H   0  0  0  0  0  0  0  0  0  0  0  0
    5.6238    3.5497    0.0000 H   0  0  0  0  0  0  0  0  0  0  0  0
    2.8179    3.5497    0.0000 H   0  0  0  0  0  0  0  0  0  0  0  0
    7.2265   -3.6881    0.0000 H   0  0  0  0  0  0  0  0  0  0  0  0
    8.2210   -3.5835    0.0000 H   0  0  0  0  0  0  0  0  0  0  0  0
    9.4464   -2.3558    0.0000 H   0  0  0  0  0  0  0  0  0  0  0  0
    9.1321   -1.5372    0.0000 H   0  0  0  0  0  0  0  0  0  0  0  0
    8.3136   -1.8514    0.0000 H   0  0  0  0  0  0  0  0  0  0  0  0
    8.0970   -0.3659    0.0000 H   0  0  0  0  0  0  0  0  0  0  0  0
    7.0290   -0.4782    0.0000 H   0  0  0  0  0  0  0  0  0  0  0  0
   10.1417   -4.8951    0.0000 H   0  0  0  0  0  0  0  0  0  0  0  0
   11.0077   -5.0322    0.0000 H   0  0  0  0  0  0  0  0  0  0  0  0
   11.1449   -4.1662    0.0000 H   0  0  0  0  0  0  0  0  0  0  0  0
  1  2  1  0  0  0  0
  2  6  1  0  0  0  0
  2  7  1  0  0  0  0
  2 14  1  0  0  0  0
  3 18  1  0  0  0  0
  3 19  1  0  0  0  0
 16  4  1  1  0  0  0
  4 35  1  0  0  0  0
 17  5  1  1  0  0  0
  5 36  1  0  0  0  0
  6 20  1  0  0  0  0
  7 15  1  0  0  0  0
  8 21  2  0  0  0  0
  9 24  2  0  0  0  0
 10 27  1  0  0  0  0
 10 28  1  0  0  0  0
 11 27  2  0  0  0  0
 19 12  1  6  0  0  0
 12 21  1  0  0  0  0
 12 22  1  0  0  0  0
 13 21  1  0  0  0  0
 13 24  1  0  0  0  0
 13 38  1  0  0  0  0
 14 25  1  0  0  0  0
 14 40  1  0  0  0  0
 15 45  1  0  0  0  0
 15 46  1  0  0  0  0
 16 17  1  0  0  0  0
 16 18  1  0  0  0  0
 16 29  1  0  0  0  0
 17 19  1  0  0  0  0
 17 30  1  0  0  0  0
 18 20  1  6  0  0  0
 18 31  1  0  0  0  0
 19 32  1  0  0  0  0
 20 33  1  0  0  0  0
 20 34  1  0  0  0  0
 22 23  2  0  0  0  0
 22 37  1  0  0  0  0
 23 24  1  0  0  0  0
 23 39  1  0  0  0  0
 25 26  1  0  0  0  0
 25 27  1  0  0  0  0
 25 41  1  0  0  0  0
 26 42  1  0  0  0  0
 26 43  1  0  0  0  0
 26 44  1  0  0  0  0
 28 47  1  0  0  0  0
 28 48  1  0  0  0  0
 28 49  1  0  0  0  0
M  CHG  3   1  -1   2   1  10   1
M  END
> <PUBCHEM_COMPOUND_CID>
101186593

> <PUBCHEM_COMPOUND_CANONICALIZED>
1

> <PUBCHEM_CACTVS_COMPLEXITY>
656

> <PUBCHEM_CACTVS_HBOND_ACCEPTOR>
11

> <PUBCHEM_CACTVS_HBOND_DONOR>
5

> <PUBCHEM_CACTVS_ROTATABLE_BOND>
9

> <PUBCHEM_CACTVS_SUBSKEYS>
AAADceBzvAJAAAAAAAAAAAAAAAAAASAAAAAgAAAAAAAAAAAAAAAAHgAUiCAACDzhgAYDCAPABxCIACHWWACAAAAAAgAIAIGIAECDEAIAgAAPQAAPFyITAMDwMAIAAAAAAAAAAAAAAAAAAAAAAAAAAAAAAA==

> <PUBCHEM_IUPAC_INCHI>
InChI=1S/C13H21N4O9PS/c1-6(12(21)23-2)16-27(28,26-14)24-5-7-9(19)10(20)11(25-7)17-4-3-8(18)15-13(17)22/h3-4,6-7,9-11,19-20H,5,14H2,1-2H3,(H,16,28)(H,15,18,22)/q+1/t6?,7-,9-,10-,11-,27?/m1/s1

> <PUBCHEM_IUPAC_INCHIKEY>
BJJVDMLXHSSKCM-VMRYSKJQSA-N

> <PUBCHEM_XLOGP3>
-2.2

> <PUBCHEM_EXACT_MASS>
440.07668643

> <PUBCHEM_MOLECULAR_FORMULA>
C13H21N4O9PS+

> <PUBCHEM_MOLECULAR_WEIGHT>
440.37

> <PUBCHEM_OPENEYE_CAN_SMILES>
CC(C(=O)[O+]C)N[P+](OCC1C(C(C(O1)N2C=CC(=O)NC2=O)O)O)(ON)[S-]

> <PUBCHEM_OPENEYE_ISO_SMILES>
CC(C(=O)[O+]C)N[P+](OC[C@@H]1[C@H]([C@H]([C@@H](O1)N2C=CC(=O)NC2=O)O)O)(ON)[S-]

> <PUBCHEM_CACTVS_TPSA>
175

> <PUBCHEM_MONOISOTOPIC_WEIGHT>
440.07668643

> <PUBCHEM_TOTAL_CHARGE>
1

> <PUBCHEM_HEAVY_ATOM_COUNT>
28

> <PUBCHEM_ATOM_DEF_STEREO_COUNT>
4

> <PUBCHEM_ATOM_UDEF_STEREO_COUNT>
1

> <PUBCHEM_BOND_DEF_STEREO_COUNT>
0

> <PUBCHEM_BOND_UDEF_STEREO_COUNT>
0

> <PUBCHEM_ISOTOPIC_ATOM_COUNT>
0

> <PUBCHEM_COMPONENT_COUNT>
1

> <PUBCHEM_CACTVS_TAUTO_COUNT>
-1

> <PUBCHEM_COORDINATE_TYPE>
1
5
255

> <PUBCHEM_BONDANNOTATIONS>
19  12  6
12  21  8
12  22  8
13  21  8
13  24  8
18  20  6
22  23  8
23  24  8
25  26  3
16  4  5
17  5  5

$$$$
