 
  -OEChem-10192103392D

 67 67  0     1  0  0  0  0  0999 V2000
    8.6962    2.4510    0.0000 P   0  0  0  0  0  0  0  0  0  0  0  0
    8.1962    3.3170    0.0000 O   0  0  0  0  0  0  0  0  0  0  0  0
    6.1962    3.3170    0.0000 O   0  0  0  0  0  0  0  0  0  0  0  0
    8.0622    0.8170    0.0000 O   0  0  0  0  0  0  0  0  0  0  0  0
    7.1962   -0.6830    0.0000 O   0  0  0  0  0  0  0  0  0  0  0  0
    8.0622    5.8170    0.0000 O   0  0  0  0  0  0  0  0  0  0  0  0
    3.7320   -3.6830    0.0000 O   0  0  0  0  0  0  0  0  0  0  0  0
    8.9282    4.3170    0.0000 O   0  0  0  0  0  0  0  0  0  0  0  0
    2.8660   -2.1830    0.0000 O   0  0  0  0  0  0  0  0  0  0  0  0
    9.6962    2.4510    0.0000 O   0  0  0  0  0  0  0  0  0  0  0  0
    4.5981   -2.1830    0.0000 N   0  0  0  0  0  0  0  0  0  0  0  0
    7.1962    4.3170    0.0000 N   0  0  0  0  0  0  0  0  0  0  0  0
    6.3301    0.8170    0.0000 C   0  0  3  0  0  0  0  0  0  0  0  0
    5.4641    0.3170    0.0000 C   0  0  0  0  0  0  0  0  0  0  0  0
    5.4641   -0.6830    0.0000 C   0  0  3  0  0  0  0  0  0  0  0  0
    6.3301    1.8170    0.0000 C   0  0  0  0  0  0  0  0  0  0  0  0
    7.1962    2.3170    0.0000 C   0  0  0  0  0  0  0  0  0  0  0  0
    4.5981   -1.1830    0.0000 C   0  0  0  0  0  0  0  0  0  0  0  0
    6.3301   -1.1830    0.0000 C   0  0  0  0  0  0  0  0  0  0  0  0
    7.1962    3.3170    0.0000 C   0  0  3  0  0  0  0  0  0  0  0  0
    7.1962    0.3170    0.0000 C   0  0  0  0  0  0  0  0  0  0  0  0
    8.9282    6.3170    0.0000 C   0  0  0  0  0  0  0  0  0  0  0  0
    8.0622    4.8170    0.0000 C   0  0  0  0  0  0  0  0  0  0  0  0
    3.7320   -2.6830    0.0000 C   0  0  0  0  0  0  0  0  0  0  0  0
    9.7942    6.8170    0.0000 C   0  0  0  0  0  0  0  0  0  0  0  0
    8.4282    7.1830    0.0000 C   0  0  0  0  0  0  0  0  0  0  0  0
    9.4282    5.4510    0.0000 C   0  0  0  0  0  0  0  0  0  0  0  0
    2.8660   -4.1830    0.0000 C   0  0  0  0  0  0  0  0  0  0  0  0
    2.8660   -5.1830    0.0000 C   0  0  0  0  0  0  0  0  0  0  0  0
    3.7320   -5.6830    0.0000 C   0  0  0  0  0  0  0  0  0  0  0  0
    2.0000   -5.6830    0.0000 C   0  0  0  0  0  0  0  0  0  0  0  0
    3.7320   -6.6830    0.0000 C   0  0  0  0  0  0  0  0  0  0  0  0
    2.0000   -6.6830    0.0000 C   0  0  0  0  0  0  0  0  0  0  0  0
    2.8660   -7.1830    0.0000 C   0  0  0  0  0  0  0  0  0  0  0  0
    6.8671    1.1270    0.0000 H   0  0  0  0  0  0  0  0  0  0  0  0
    5.2520    0.8996    0.0000 H   0  0  0  0  0  0  0  0  0  0  0  0
    4.8535    0.2093    0.0000 H   0  0  0  0  0  0  0  0  0  0  0  0
    5.4641   -1.3030    0.0000 H   0  0  0  0  0  0  0  0  0  0  0  0
    6.1181    2.3996    0.0000 H   0  0  0  0  0  0  0  0  0  0  0  0
    5.7196    1.7093    0.0000 H   0  0  0  0  0  0  0  0  0  0  0  0
    7.4082    1.7344    0.0000 H   0  0  0  0  0  0  0  0  0  0  0  0
    7.8067    2.4247    0.0000 H   0  0  0  0  0  0  0  0  0  0  0  0
    4.3860   -0.6004    0.0000 H   0  0  0  0  0  0  0  0  0  0  0  0
    3.9875   -1.2907    0.0000 H   0  0  0  0  0  0  0  0  0  0  0  0
    6.0201   -1.7200    0.0000 H   0  0  0  0  0  0  0  0  0  0  0  0
    6.8671   -1.4930    0.0000 H   0  0  0  0  0  0  0  0  0  0  0  0
    6.6401   -0.6461    0.0000 H   0  0  0  0  0  0  0  0  0  0  0  0
    5.1350   -2.4930    0.0000 H   0  0  0  0  0  0  0  0  0  0  0  0
    6.6592    4.6270    0.0000 H   0  0  0  0  0  0  0  0  0  0  0  0
    5.8862    3.8539    0.0000 H   0  0  0  0  0  0  0  0  0  0  0  0
    8.5991    0.5070    0.0000 H   0  0  0  0  0  0  0  0  0  0  0  0
   10.1042    6.2800    0.0000 H   0  0  0  0  0  0  0  0  0  0  0  0
   10.3312    7.1270    0.0000 H   0  0  0  0  0  0  0  0  0  0  0  0
    9.4842    7.3539    0.0000 H   0  0  0  0  0  0  0  0  0  0  0  0
    8.9651    7.4930    0.0000 H   0  0  0  0  0  0  0  0  0  0  0  0
    8.1182    7.7200    0.0000 H   0  0  0  0  0  0  0  0  0  0  0  0
    7.8913    6.8730    0.0000 H   0  0  0  0  0  0  0  0  0  0  0  0
    8.8913    5.1410    0.0000 H   0  0  0  0  0  0  0  0  0  0  0  0
    9.7382    4.9140    0.0000 H   0  0  0  0  0  0  0  0  0  0  0  0
    9.9651    5.7610    0.0000 H   0  0  0  0  0  0  0  0  0  0  0  0
    2.6540   -3.6004    0.0000 H   0  0  0  0  0  0  0  0  0  0  0  0
    2.2554   -4.2907    0.0000 H   0  0  0  0  0  0  0  0  0  0  0  0
    4.2690   -5.3730    0.0000 H   0  0  0  0  0  0  0  0  0  0  0  0
    1.4631   -5.3730    0.0000 H   0  0  0  0  0  0  0  0  0  0  0  0
    4.2690   -6.9930    0.0000 H   0  0  0  0  0  0  0  0  0  0  0  0
    1.4631   -6.9930    0.0000 H   0  0  0  0  0  0  0  0  0  0  0  0
    2.8660   -7.8030    0.0000 H   0  0  0  0  0  0  0  0  0  0  0  0
  1  2  1  0  0  0  0
  1 10  2  0  0  0  0
  2 20  1  0  0  0  0
  3 20  1  0  0  0  0
  3 50  1  0  0  0  0
  4 21  1  0  0  0  0
  4 51  1  0  0  0  0
  5 21  2  0  0  0  0
  6 22  1  0  0  0  0
  6 23  1  0  0  0  0
  7 24  1  0  0  0  0
  7 28  1  0  0  0  0
  8 23  2  0  0  0  0
  9 24  2  0  0  0  0
 11 18  1  0  0  0  0
 11 24  1  0  0  0  0
 11 48  1  0  0  0  0
 12 20  1  0  0  0  0
 12 23  1  0  0  0  0
 12 49  1  0  0  0  0
 13 14  1  0  0  0  0
 13 16  1  0  0  0  0
 13 21  1  0  0  0  0
 13 35  1  0  0  0  0
 14 15  1  0  0  0  0
 14 36  1  0  0  0  0
 14 37  1  0  0  0  0
 15 18  1  0  0  0  0
 15 19  1  0  0  0  0
 15 38  1  0  0  0  0
 16 17  1  0  0  0  0
 16 39  1  0  0  0  0
 16 40  1  0  0  0  0
 17 20  1  0  0  0  0
 17 41  1  0  0  0  0
 17 42  1  0  0  0  0
 18 43  1  0  0  0  0
 18 44  1  0  0  0  0
 19 45  1  0  0  0  0
 19 46  1  0  0  0  0
 19 47  1  0  0  0  0
 22 25  1  0  0  0  0
 22 26  1  0  0  0  0
 22 27  1  0  0  0  0
 25 52  1  0  0  0  0
 25 53  1  0  0  0  0
 25 54  1  0  0  0  0
 26 55  1  0  0  0  0
 26 56  1  0  0  0  0
 26 57  1  0  0  0  0
 27 58  1  0  0  0  0
 27 59  1  0  0  0  0
 27 60  1  0  0  0  0
 28 29  1  0  0  0  0
 28 61  1  0  0  0  0
 28 62  1  0  0  0  0
 29 30  2  0  0  0  0
 29 31  1  0  0  0  0
 30 32  1  0  0  0  0
 30 63  1  0  0  0  0
 31 33  2  0  0  0  0
 31 64  1  0  0  0  0
 32 34  2  0  0  0  0
 32 65  1  0  0  0  0
 33 34  1  0  0  0  0
 33 66  1  0  0  0  0
 34 67  1  0  0  0  0
M  END
> <PUBCHEM_COMPOUND_CID>
70106725

> <PUBCHEM_COMPOUND_CANONICALIZED>
1

> <PUBCHEM_CACTVS_COMPLEXITY>
680

> <PUBCHEM_CACTVS_HBOND_ACCEPTOR>
9

> <PUBCHEM_CACTVS_HBOND_DONOR>
4

> <PUBCHEM_CACTVS_ROTATABLE_BOND>
15

> <PUBCHEM_CACTVS_SUBSKEYS>
AAADcfB7PAIAAAAAAAAAAAAAAAAAAAAAAAAwAAAAAAAAAAABAAAAHgAQCCAADUThmAYyCILABxCIQiDSGIACAAAgAAAIiIEICIkIJjKAsRiMcAAk1gEIqAeY9WIOAAAAAAAAAAAAAAAAAAAAAAAAAAAAAA==

> <PUBCHEM_IUPAC_OPENEYE_NAME>
2-[3-(benzyloxycarbonylamino)-2-methyl-propyl]-5-(tert-butoxycarbonylamino)-5-hydroxy-5-phosphorosooxy-pentanoic acid

> <PUBCHEM_IUPAC_CAS_NAME>
5-hydroxy-2-[2-methyl-3-(phenylmethoxycarbonylamino)propyl]-5-[[(2-methylpropan-2-yl)oxy-oxomethyl]amino]-5-phosphorosooxypentanoic acid

> <PUBCHEM_IUPAC_NAME_MARKUP>
5-hydroxy-2-[2-methyl-3-(phenylmethoxycarbonylamino)propyl]-5-[(2-methylpropan-2-yl)oxycarbonylamino]-5-phosphorosooxypentanoic acid

> <PUBCHEM_IUPAC_NAME>
5-hydroxy-2-[2-methyl-3-(phenylmethoxycarbonylamino)propyl]-5-[(2-methylpropan-2-yl)oxycarbonylamino]-5-phosphorosooxypentanoic acid

> <PUBCHEM_IUPAC_SYSTEMATIC_NAME>
2-[2-methyl-3-(phenylmethoxycarbonylamino)propyl]-5-[(2-methylpropan-2-yl)oxycarbonylamino]-5-oxidanyl-5-phosphorosooxy-pentanoic acid

> <PUBCHEM_IUPAC_TRADITIONAL_NAME>
2-[3-(benzyloxycarbonylamino)-2-methyl-propyl]-5-(tert-butoxycarbonylamino)-5-hydroxy-5-phosphorosooxy-valeric acid

> <PUBCHEM_IUPAC_INCHI>
InChI=1S/C22H33N2O9P/c1-15(13-23-19(27)31-14-16-8-6-5-7-9-16)12-17(18(25)26)10-11-22(29,33-34-30)24-20(28)32-21(2,3)4/h5-9,15,17,29H,10-14H2,1-4H3,(H,23,27)(H,24,28)(H,25,26)

> <PUBCHEM_IUPAC_INCHIKEY>
XKCGGZVDYZEYPB-UHFFFAOYSA-N

> <PUBCHEM_XLOGP3_AA>
2.4

> <PUBCHEM_EXACT_MASS>
500.19236763

> <PUBCHEM_MOLECULAR_FORMULA>
C22H33N2O9P

> <PUBCHEM_MOLECULAR_WEIGHT>
500.5

> <PUBCHEM_OPENEYE_CAN_SMILES>
CC(CC(CCC(NC(=O)OC(C)(C)C)(O)OP=O)C(=O)O)CNC(=O)OCC1=CC=CC=C1

> <PUBCHEM_OPENEYE_ISO_SMILES>
CC(CC(CCC(NC(=O)OC(C)(C)C)(O)OP=O)C(=O)O)CNC(=O)OCC1=CC=CC=C1

> <PUBCHEM_CACTVS_TPSA>
161

> <PUBCHEM_MONOISOTOPIC_WEIGHT>
500.19236763

> <PUBCHEM_TOTAL_CHARGE>
0

> <PUBCHEM_HEAVY_ATOM_COUNT>
34

> <PUBCHEM_ATOM_DEF_STEREO_COUNT>
0

> <PUBCHEM_ATOM_UDEF_STEREO_COUNT>
3

> <PUBCHEM_BOND_DEF_STEREO_COUNT>
0

> <PUBCHEM_BOND_UDEF_STEREO_COUNT>
0

> <PUBCHEM_ISOTOPIC_ATOM_COUNT>
0

> <PUBCHEM_COMPONENT_COUNT>
1

> <PUBCHEM_CACTVS_TAUTO_COUNT>
-1

> <PUBCHEM_COORDINATE_TYPE>
1
5
255

> <PUBCHEM_BONDANNOTATIONS>
13  16  3
15  19  3
29  30  8
29  31  8
20  3  3
30  32  8
31  33  8
32  34  8
33  34  8

$$$$
