 
  -OEChem-10192104312D

 70 70  0     1  0  0  0  0  0999 V2000
    6.3301   -1.3170    0.0000 P   0  0  0  0  0  0  0  0  0  0  0  0
    2.8660   -1.3170    0.0000 O   0  0  0  0  0  0  0  0  0  0  0  0
    4.5981    3.6830    0.0000 O   0  0  0  0  0  0  0  0  0  0  0  0
    7.1962   -1.8170    0.0000 O   0  0  0  0  0  0  0  0  0  0  0  0
    6.8301   -0.4510    0.0000 O   0  0  0  0  0  0  0  0  0  0  0  0
    2.8660    3.6830    0.0000 O   0  0  0  0  0  0  0  0  0  0  0  0
    3.7320   -3.8170    0.0000 O   0  0  0  0  0  0  0  0  0  0  0  0
    5.8301   -2.1830    0.0000 O   0  0  0  0  0  0  0  0  0  0  0  0
    2.8660   -2.3170    0.0000 O   0  0  0  0  0  0  0  0  0  0  0  0
    3.7320    0.1830    0.0000 N   0  0  0  0  0  0  0  0  0  0  0  0
    3.7320    2.1830    0.0000 N   0  0  0  0  0  0  0  0  0  0  0  0
    4.5981   -2.3170    0.0000 N   0  0  0  0  0  0  0  0  0  0  0  0
    2.8660    1.6830    0.0000 C   0  0  3  0  0  0  0  0  0  0  0  0
    2.8660    0.6830    0.0000 C   0  0  0  0  0  0  0  0  0  0  0  0
    4.5981    0.6830    0.0000 C   0  0  0  0  0  0  0  0  0  0  0  0
    4.5981    1.6830    0.0000 C   0  0  0  0  0  0  0  0  0  0  0  0
    3.7320   -0.8170    0.0000 C   0  0  0  0  0  0  0  0  0  0  0  0
    4.5981   -1.3170    0.0000 C   0  0  2  0  0  0  0  0  0  0  0  0
    2.0000    2.1830    0.0000 C   0  0  0  0  0  0  0  0  0  0  0  0
    5.4641   -0.8170    0.0000 C   0  0  0  0  0  0  0  0  0  0  0  0
    3.7320    3.1830    0.0000 C   0  0  0  0  0  0  0  0  0  0  0  0
    3.7320   -2.8170    0.0000 C   0  0  0  0  0  0  0  0  0  0  0  0
    2.8660   -4.3170    0.0000 C   0  0  0  0  0  0  0  0  0  0  0  0
    4.5981    4.6830    0.0000 C   0  0  0  0  0  0  0  0  0  0  0  0
    8.0622   -1.3170    0.0000 C   0  0  0  0  0  0  0  0  0  0  0  0
    6.3301    0.4151    0.0000 C   0  0  0  0  0  0  0  0  0  0  0  0
    2.0000   -4.8170    0.0000 C   0  0  0  0  0  0  0  0  0  0  0  0
    3.3660   -5.1830    0.0000 C   0  0  0  0  0  0  0  0  0  0  0  0
    2.3660   -3.4510    0.0000 C   0  0  0  0  0  0  0  0  0  0  0  0
    5.4641    5.1830    0.0000 C   0  0  0  0  0  0  0  0  0  0  0  0
    8.9282   -1.8170    0.0000 C   0  0  0  0  0  0  0  0  0  0  0  0
    6.8301    1.2811    0.0000 C   0  0  0  0  0  0  0  0  0  0  0  0
    2.8660    2.3030    0.0000 H   0  0  0  0  0  0  0  0  0  0  0  0
    2.2554    0.7907    0.0000 H   0  0  0  0  0  0  0  0  0  0  0  0
    2.6540    0.1004    0.0000 H   0  0  0  0  0  0  0  0  0  0  0  0
    4.8101    0.1004    0.0000 H   0  0  0  0  0  0  0  0  0  0  0  0
    5.2087    0.7907    0.0000 H   0  0  0  0  0  0  0  0  0  0  0  0
    5.2087    1.5754    0.0000 H   0  0  0  0  0  0  0  0  0  0  0  0
    4.8101    2.2656    0.0000 H   0  0  0  0  0  0  0  0  0  0  0  0
    5.1350   -1.6270    0.0000 H   0  0  0  0  0  0  0  0  0  0  0  0
    2.3100    2.7200    0.0000 H   0  0  0  0  0  0  0  0  0  0  0  0
    1.4631    2.4930    0.0000 H   0  0  0  0  0  0  0  0  0  0  0  0
    1.6900    1.6461    0.0000 H   0  0  0  0  0  0  0  0  0  0  0  0
    5.8626   -0.3420    0.0000 H   0  0  0  0  0  0  0  0  0  0  0  0
    5.0656   -0.3420    0.0000 H   0  0  0  0  0  0  0  0  0  0  0  0
    5.1350   -2.6270    0.0000 H   0  0  0  0  0  0  0  0  0  0  0  0
    4.3860    5.2656    0.0000 H   0  0  0  0  0  0  0  0  0  0  0  0
    3.9875    4.5754    0.0000 H   0  0  0  0  0  0  0  0  0  0  0  0
    8.4607   -0.8420    0.0000 H   0  0  0  0  0  0  0  0  0  0  0  0
    7.6636   -0.8420    0.0000 H   0  0  0  0  0  0  0  0  0  0  0  0
    5.8552    0.8136    0.0000 H   0  0  0  0  0  0  0  0  0  0  0  0
    5.8552    0.0165    0.0000 H   0  0  0  0  0  0  0  0  0  0  0  0
    1.6900   -4.2800    0.0000 H   0  0  0  0  0  0  0  0  0  0  0  0
    1.4631   -5.1270    0.0000 H   0  0  0  0  0  0  0  0  0  0  0  0
    2.3100   -5.3539    0.0000 H   0  0  0  0  0  0  0  0  0  0  0  0
    2.8291   -5.4930    0.0000 H   0  0  0  0  0  0  0  0  0  0  0  0
    3.6760   -5.7200    0.0000 H   0  0  0  0  0  0  0  0  0  0  0  0
    3.9030   -4.8730    0.0000 H   0  0  0  0  0  0  0  0  0  0  0  0
    2.9030   -3.1410    0.0000 H   0  0  0  0  0  0  0  0  0  0  0  0
    2.0560   -2.9140    0.0000 H   0  0  0  0  0  0  0  0  0  0  0  0
    1.8291   -3.7610    0.0000 H   0  0  0  0  0  0  0  0  0  0  0  0
    5.7741    4.6461    0.0000 H   0  0  0  0  0  0  0  0  0  0  0  0
    6.0010    5.4930    0.0000 H   0  0  0  0  0  0  0  0  0  0  0  0
    5.1541    5.7200    0.0000 H   0  0  0  0  0  0  0  0  0  0  0  0
    8.6182   -2.3539    0.0000 H   0  0  0  0  0  0  0  0  0  0  0  0
    9.4651   -2.1270    0.0000 H   0  0  0  0  0  0  0  0  0  0  0  0
    9.2382   -1.2800    0.0000 H   0  0  0  0  0  0  0  0  0  0  0  0
    7.3671    0.9711    0.0000 H   0  0  0  0  0  0  0  0  0  0  0  0
    7.1401    1.8180    0.0000 H   0  0  0  0  0  0  0  0  0  0  0  0
    6.2932    1.5911    0.0000 H   0  0  0  0  0  0  0  0  0  0  0  0
  1  4  1  0  0  0  0
  1  5  1  0  0  0  0
  1  8  2  0  0  0  0
  1 20  1  0  0  0  0
  2 17  2  0  0  0  0
  3 21  1  0  0  0  0
  3 24  1  0  0  0  0
  4 25  1  0  0  0  0
  5 26  1  0  0  0  0
  6 21  2  0  0  0  0
  7 22  1  0  0  0  0
  7 23  1  0  0  0  0
  9 22  2  0  0  0  0
 10 14  1  0  0  0  0
 10 15  1  0  0  0  0
 10 17  1  0  0  0  0
 11 13  1  0  0  0  0
 11 16  1  0  0  0  0
 11 21  1  0  0  0  0
 18 12  1  6  0  0  0
 12 22  1  0  0  0  0
 12 46  1  0  0  0  0
 13 14  1  0  0  0  0
 13 19  1  0  0  0  0
 13 33  1  0  0  0  0
 14 34  1  0  0  0  0
 14 35  1  0  0  0  0
 15 16  1  0  0  0  0
 15 36  1  0  0  0  0
 15 37  1  0  0  0  0
 16 38  1  0  0  0  0
 16 39  1  0  0  0  0
 17 18  1  0  0  0  0
 18 20  1  0  0  0  0
 18 40  1  0  0  0  0
 19 41  1  0  0  0  0
 19 42  1  0  0  0  0
 19 43  1  0  0  0  0
 20 44  1  0  0  0  0
 20 45  1  0  0  0  0
 23 27  1  0  0  0  0
 23 28  1  0  0  0  0
 23 29  1  0  0  0  0
 24 30  1  0  0  0  0
 24 47  1  0  0  0  0
 24 48  1  0  0  0  0
 25 31  1  0  0  0  0
 25 49  1  0  0  0  0
 25 50  1  0  0  0  0
 26 32  1  0  0  0  0
 26 51  1  0  0  0  0
 26 52  1  0  0  0  0
 27 53  1  0  0  0  0
 27 54  1  0  0  0  0
 27 55  1  0  0  0  0
 28 56  1  0  0  0  0
 28 57  1  0  0  0  0
 28 58  1  0  0  0  0
 29 59  1  0  0  0  0
 29 60  1  0  0  0  0
 29 61  1  0  0  0  0
 30 62  1  0  0  0  0
 30 63  1  0  0  0  0
 30 64  1  0  0  0  0
 31 65  1  0  0  0  0
 31 66  1  0  0  0  0
 31 67  1  0  0  0  0
 32 68  1  0  0  0  0
 32 69  1  0  0  0  0
 32 70  1  0  0  0  0
M  END
> <PUBCHEM_COMPOUND_CID>
87455785

> <PUBCHEM_COMPOUND_CANONICALIZED>
1

> <PUBCHEM_CACTVS_COMPLEXITY>
687

> <PUBCHEM_CACTVS_HBOND_ACCEPTOR>
8

> <PUBCHEM_CACTVS_HBOND_DONOR>
1

> <PUBCHEM_CACTVS_ROTATABLE_BOND>
12

> <PUBCHEM_CACTVS_SUBSKEYS>
AAADcfB7PAIAAAAAAAAAAAAAAAAAAAAAAAAsAAAAAAAAAAAAAAAAHggQACAADGzpgAYCCAPABRAIQAEQGIAAAAAAAAAAAIGIAAEAQAAAACAcAAAAFgCAAAAAAAAAAAAAAAAAAAAAAAAAAAAAAAAAAAAAAA==

> <PUBCHEM_IUPAC_OPENEYE_NAME>
ethyl 4-[(2R)-2-(tert-butoxycarbonylamino)-3-diethoxyphosphoryl-propanoyl]-2-methyl-piperazine-1-carboxylate

> <PUBCHEM_IUPAC_CAS_NAME>
4-[(2R)-3-diethoxyphosphoryl-2-[[(2-methylpropan-2-yl)oxy-oxomethyl]amino]-1-oxopropyl]-2-methyl-1-piperazinecarboxylic acid ethyl ester

> <PUBCHEM_IUPAC_NAME_MARKUP>
ethyl 4-[(2<I>R</I>)-3-diethoxyphosphoryl-2-[(2-methylpropan-2-yl)oxycarbonylamino]propanoyl]-2-methylpiperazine-1-carboxylate

> <PUBCHEM_IUPAC_NAME>
ethyl 4-[(2R)-3-diethoxyphosphoryl-2-[(2-methylpropan-2-yl)oxycarbonylamino]propanoyl]-2-methylpiperazine-1-carboxylate

> <PUBCHEM_IUPAC_SYSTEMATIC_NAME>
ethyl 4-[(2R)-3-diethoxyphosphoryl-2-[(2-methylpropan-2-yl)oxycarbonylamino]propanoyl]-2-methyl-piperazine-1-carboxylate

> <PUBCHEM_IUPAC_TRADITIONAL_NAME>
4-[(2R)-2-(tert-butoxycarbonylamino)-3-diethoxyphosphoryl-propanoyl]-2-methyl-piperazine-1-carboxylic acid ethyl ester

> <PUBCHEM_IUPAC_INCHI>
InChI=1S/C20H38N3O8P/c1-8-28-19(26)23-12-11-22(13-15(23)4)17(24)16(21-18(25)31-20(5,6)7)14-32(27,29-9-2)30-10-3/h15-16H,8-14H2,1-7H3,(H,21,25)/t15?,16-/m0/s1

> <PUBCHEM_IUPAC_INCHIKEY>
HGEQOFUDZWHKGA-LYKKTTPLSA-N

> <PUBCHEM_XLOGP3_AA>
0.9

> <PUBCHEM_EXACT_MASS>
479.23965218

> <PUBCHEM_MOLECULAR_FORMULA>
C20H38N3O8P

> <PUBCHEM_MOLECULAR_WEIGHT>
479.5

> <PUBCHEM_OPENEYE_CAN_SMILES>
CCOC(=O)N1CCN(CC1C)C(=O)C(CP(=O)(OCC)OCC)NC(=O)OC(C)(C)C

> <PUBCHEM_OPENEYE_ISO_SMILES>
CCOC(=O)N1CCN(CC1C)C(=O)[C@H](CP(=O)(OCC)OCC)NC(=O)OC(C)(C)C

> <PUBCHEM_CACTVS_TPSA>
124

> <PUBCHEM_MONOISOTOPIC_WEIGHT>
479.23965218

> <PUBCHEM_TOTAL_CHARGE>
0

> <PUBCHEM_HEAVY_ATOM_COUNT>
32

> <PUBCHEM_ATOM_DEF_STEREO_COUNT>
1

> <PUBCHEM_ATOM_UDEF_STEREO_COUNT>
1

> <PUBCHEM_BOND_DEF_STEREO_COUNT>
0

> <PUBCHEM_BOND_UDEF_STEREO_COUNT>
0

> <PUBCHEM_ISOTOPIC_ATOM_COUNT>
0

> <PUBCHEM_COMPONENT_COUNT>
1

> <PUBCHEM_CACTVS_TAUTO_COUNT>
-1

> <PUBCHEM_COORDINATE_TYPE>
1
5
255

> <PUBCHEM_BONDANNOTATIONS>
18  12  6
13  19  3

$$$$
