 
  -OEChem-10192104372D

 96100  0     1  0  0  0  0  0999 V2000
    6.0580   -0.7316    0.0000 O   0  0  0  0  0  0  0  0  0  0  0  0
    9.3703   -0.3715    0.0000 O   0  0  0  0  0  0  0  0  0  0  0  0
    5.1350   -5.3194    0.0000 O   0  0  0  0  0  0  0  0  0  0  0  0
    6.8671   -5.3194    0.0000 O   0  0  0  0  0  0  0  0  0  0  0  0
    7.9102    5.3872    0.0000 O   0  0  0  0  0  0  0  0  0  0  0  0
    6.3279    4.6827    0.0000 O   0  0  0  0  0  0  0  0  0  0  0  0
    5.1350   -8.3194    0.0000 O   0  0  0  0  0  0  0  0  0  0  0  0
    6.8671   -7.3194    0.0000 O   0  0  0  0  0  0  0  0  0  0  0  0
    3.4030   -7.3194    0.0000 O   0  0  0  0  0  0  0  0  0  0  0  0
    5.1350   -4.3194    0.0000 O   0  0  0  0  0  0  0  0  0  0  0  0
    8.5991   -4.3194    0.0000 O   0  0  0  0  0  0  0  0  0  0  0  0
    6.6900    8.1278    0.0000 O   0  0  0  0  0  0  0  0  0  0  0  0
    5.5144    6.5098    0.0000 O   0  0  0  0  0  0  0  0  0  0  0  0
    8.6790    7.9187    0.0000 O   0  0  0  0  0  0  0  0  0  0  0  0
    5.1523    3.0646    0.0000 O   0  0  0  0  0  0  0  0  0  0  0  0
    2.5369   -5.8194    0.0000 O   0  0  0  0  0  0  0  0  0  0  0  0
   10.0803    6.9007    0.0000 O   0  0  0  0  0  0  0  0  0  0  0  0
    7.6761   -0.7316    0.0000 C   0  0  1  0  0  0  0  0  0  0  0  0
    7.3671    0.2195    0.0000 C   0  0  2  0  0  0  0  0  0  0  0  0
    6.8671   -1.3194    0.0000 C   0  0  1  0  0  0  0  0  0  0  0  0
    6.3671    0.2195    0.0000 C   0  0  0  0  0  0  0  0  0  0  0  0
    7.9548    1.0285    0.0000 C   0  0  0  0  0  0  0  0  0  0  0  0
    8.6271   -1.0406    0.0000 C   0  0  0  0  0  0  0  0  0  0  0  0
    6.8671   -2.3194    0.0000 C   0  0  0  0  0  0  0  0  0  0  0  0
    7.5481    1.9420    0.0000 C   0  0  0  0  0  0  0  0  0  0  0  0
    7.7331   -2.8194    0.0000 C   0  0  0  0  0  0  0  0  0  0  0  0
    6.0010   -2.8194    0.0000 C   0  0  0  0  0  0  0  0  0  0  0  0
    5.1350   -7.3194    0.0000 C   0  0  2  0  0  0  0  0  0  0  0  0
    6.0010   -6.8194    0.0000 C   0  0  2  0  0  0  0  0  0  0  0  0
    6.0010   -5.8194    0.0000 C   0  0  1  0  0  0  0  0  0  0  0  0
    4.2690   -6.8194    0.0000 C   0  0  1  0  0  0  0  0  0  0  0  0
    4.2690   -5.8194    0.0000 C   0  0  1  0  0  0  0  0  0  0  0  0
    6.5536    2.0466    0.0000 C   0  0  0  0  0  0  0  0  0  0  0  0
    8.1359    2.7510    0.0000 C   0  0  0  0  0  0  0  0  0  0  0  0
    7.0967    7.2142    0.0000 C   0  0  2  0  0  0  0  0  0  0  0  0
    6.5089    6.4052    0.0000 C   0  0  2  0  0  0  0  0  0  0  0  0
    8.0913    7.1097    0.0000 C   0  0  1  0  0  0  0  0  0  0  0  0
    6.0010   -3.8194    0.0000 C   0  0  0  0  0  0  0  0  0  0  0  0
    7.7331   -3.8194    0.0000 C   0  0  0  0  0  0  0  0  0  0  0  0
    6.9157    5.4917    0.0000 C   0  0  1  0  0  0  0  0  0  0  0  0
    6.8671   -4.3194    0.0000 C   0  0  0  0  0  0  0  0  0  0  0  0
    8.4980    6.1962    0.0000 C   0  0  1  0  0  0  0  0  0  0  0  0
    6.1468    2.9601    0.0000 C   0  0  0  0  0  0  0  0  0  0  0  0
    6.7346    3.7691    0.0000 C   0  0  0  0  0  0  0  0  0  0  0  0
    7.7292    3.6646    0.0000 C   0  0  0  0  0  0  0  0  0  0  0  0
    3.4030   -5.3194    0.0000 C   0  0  0  0  0  0  0  0  0  0  0  0
    9.4925    6.0916    0.0000 C   0  0  0  0  0  0  0  0  0  0  0  0
    4.2690   -3.8194    0.0000 C   0  0  0  0  0  0  0  0  0  0  0  0
    9.4651   -3.8194    0.0000 C   0  0  0  0  0  0  0  0  0  0  0  0
    4.5646    2.2556    0.0000 C   0  0  0  0  0  0  0  0  0  0  0  0
    8.1145   -0.2932    0.0000 H   0  0  0  0  0  0  0  0  0  0  0  0
    7.0856    0.7719    0.0000 H   0  0  0  0  0  0  0  0  0  0  0  0
    7.4195   -1.6009    0.0000 H   0  0  0  0  0  0  0  0  0  0  0  0
    6.4319    0.8361    0.0000 H   0  0  0  0  0  0  0  0  0  0  0  0
    5.7606    0.3484    0.0000 H   0  0  0  0  0  0  0  0  0  0  0  0
    8.3855    0.5825    0.0000 H   0  0  0  0  0  0  0  0  0  0  0  0
    8.4688    1.3752    0.0000 H   0  0  0  0  0  0  0  0  0  0  0  0
    8.3361   -1.5880    0.0000 H   0  0  0  0  0  0  0  0  0  0  0  0
    9.1157   -1.4223    0.0000 H   0  0  0  0  0  0  0  0  0  0  0  0
    8.2700   -2.5094    0.0000 H   0  0  0  0  0  0  0  0  0  0  0  0
    5.4641   -2.5094    0.0000 H   0  0  0  0  0  0  0  0  0  0  0  0
    4.5981   -7.6294    0.0000 H   0  0  0  0  0  0  0  0  0  0  0  0
    6.0010   -7.4394    0.0000 H   0  0  0  0  0  0  0  0  0  0  0  0
    6.0010   -5.1994    0.0000 H   0  0  0  0  0  0  0  0  0  0  0  0
    4.2690   -7.4394    0.0000 H   0  0  0  0  0  0  0  0  0  0  0  0
    4.2690   -5.1994    0.0000 H   0  0  0  0  0  0  0  0  0  0  0  0
    9.9599   -0.5631    0.0000 H   0  0  0  0  0  0  0  0  0  0  0  0
    6.1892    1.5450    0.0000 H   0  0  0  0  0  0  0  0  0  0  0  0
    7.4612    7.7158    0.0000 H   0  0  0  0  0  0  0  0  0  0  0  0
    8.7525    2.6862    0.0000 H   0  0  0  0  0  0  0  0  0  0  0  0
    6.2568    6.9716    0.0000 H   0  0  0  0  0  0  0  0  0  0  0  0
    7.8391    7.6761    0.0000 H   0  0  0  0  0  0  0  0  0  0  0  0
    6.2991    5.5565    0.0000 H   0  0  0  0  0  0  0  0  0  0  0  0
    8.7502    5.6298    0.0000 H   0  0  0  0  0  0  0  0  0  0  0  0
    8.0936    4.1662    0.0000 H   0  0  0  0  0  0  0  0  0  0  0  0
    3.8015   -4.8444    0.0000 H   0  0  0  0  0  0  0  0  0  0  0  0
    3.0044   -4.8444    0.0000 H   0  0  0  0  0  0  0  0  0  0  0  0
    9.3216    5.4957    0.0000 H   0  0  0  0  0  0  0  0  0  0  0  0
   10.0498    5.8198    0.0000 H   0  0  0  0  0  0  0  0  0  0  0  0
    5.6720   -8.6294    0.0000 H   0  0  0  0  0  0  0  0  0  0  0  0
    7.4040   -7.0094    0.0000 H   0  0  0  0  0  0  0  0  0  0  0  0
    3.4030   -7.9394    0.0000 H   0  0  0  0  0  0  0  0  0  0  0  0
    7.0544    8.6294    0.0000 H   0  0  0  0  0  0  0  0  0  0  0  0
    5.2622    7.0762    0.0000 H   0  0  0  0  0  0  0  0  0  0  0  0
    8.4269    8.4851    0.0000 H   0  0  0  0  0  0  0  0  0  0  0  0
    2.0000   -5.5094    0.0000 H   0  0  0  0  0  0  0  0  0  0  0  0
    4.5790   -3.2824    0.0000 H   0  0  0  0  0  0  0  0  0  0  0  0
    3.7320   -3.5094    0.0000 H   0  0  0  0  0  0  0  0  0  0  0  0
    3.9590   -4.3563    0.0000 H   0  0  0  0  0  0  0  0  0  0  0  0
    9.7751   -4.3563    0.0000 H   0  0  0  0  0  0  0  0  0  0  0  0
   10.0021   -3.5094    0.0000 H   0  0  0  0  0  0  0  0  0  0  0  0
    9.1551   -3.2824    0.0000 H   0  0  0  0  0  0  0  0  0  0  0  0
   10.6969    6.8358    0.0000 H   0  0  0  0  0  0  0  0  0  0  0  0
    4.0630    2.6200    0.0000 H   0  0  0  0  0  0  0  0  0  0  0  0
    4.2001    1.7540    0.0000 H   0  0  0  0  0  0  0  0  0  0  0  0
    5.0661    1.8912    0.0000 H   0  0  0  0  0  0  0  0  0  0  0  0
  1 20  1  0  0  0  0
  1 21  1  0  0  0  0
  2 23  1  0  0  0  0
  2 67  1  0  0  0  0
  3 30  1  0  0  0  0
  3 32  1  0  0  0  0
 30  4  1  1  0  0  0
  4 41  1  0  0  0  0
  5 40  1  0  0  0  0
  5 42  1  0  0  0  0
 40  6  1  1  0  0  0
  6 44  1  0  0  0  0
 28  7  1  1  0  0  0
  7 80  1  0  0  0  0
 29  8  1  6  0  0  0
  8 81  1  0  0  0  0
 31  9  1  6  0  0  0
  9 82  1  0  0  0  0
 10 38  1  0  0  0  0
 10 48  1  0  0  0  0
 11 39  1  0  0  0  0
 11 49  1  0  0  0  0
 35 12  1  1  0  0  0
 12 83  1  0  0  0  0
 36 13  1  6  0  0  0
 13 84  1  0  0  0  0
 37 14  1  6  0  0  0
 14 85  1  0  0  0  0
 15 43  1  0  0  0  0
 15 50  1  0  0  0  0
 16 46  1  0  0  0  0
 16 86  1  0  0  0  0
 17 47  1  0  0  0  0
 17 93  1  0  0  0  0
 18 19  1  0  0  0  0
 18 20  1  0  0  0  0
 18 23  1  6  0  0  0
 18 51  1  0  0  0  0
 19 21  1  0  0  0  0
 19 22  1  6  0  0  0
 19 52  1  0  0  0  0
 20 24  1  1  0  0  0
 20 53  1  0  0  0  0
 21 54  1  0  0  0  0
 21 55  1  0  0  0  0
 22 25  1  0  0  0  0
 22 56  1  0  0  0  0
 22 57  1  0  0  0  0
 23 58  1  0  0  0  0
 23 59  1  0  0  0  0
 24 26  2  0  0  0  0
 24 27  1  0  0  0  0
 25 33  2  0  0  0  0
 25 34  1  0  0  0  0
 26 39  1  0  0  0  0
 26 60  1  0  0  0  0
 27 38  2  0  0  0  0
 27 61  1  0  0  0  0
 28 29  1  0  0  0  0
 28 31  1  0  0  0  0
 28 62  1  0  0  0  0
 29 30  1  0  0  0  0
 29 63  1  0  0  0  0
 30 64  1  0  0  0  0
 31 32  1  0  0  0  0
 31 65  1  0  0  0  0
 32 46  1  1  0  0  0
 32 66  1  0  0  0  0
 33 43  1  0  0  0  0
 33 68  1  0  0  0  0
 34 45  2  0  0  0  0
 34 70  1  0  0  0  0
 35 36  1  0  0  0  0
 35 37  1  0  0  0  0
 35 69  1  0  0  0  0
 36 40  1  0  0  0  0
 36 71  1  0  0  0  0
 37 42  1  0  0  0  0
 37 72  1  0  0  0  0
 38 41  1  0  0  0  0
 39 41  2  0  0  0  0
 40 73  1  0  0  0  0
 42 47  1  1  0  0  0
 42 74  1  0  0  0  0
 43 44  2  0  0  0  0
 44 45  1  0  0  0  0
 45 75  1  0  0  0  0
 46 76  1  0  0  0  0
 46 77  1  0  0  0  0
 47 78  1  0  0  0  0
 47 79  1  0  0  0  0
 48 87  1  0  0  0  0
 48 88  1  0  0  0  0
 48 89  1  0  0  0  0
 49 90  1  0  0  0  0
 49 91  1  0  0  0  0
 49 92  1  0  0  0  0
 50 94  1  0  0  0  0
 50 95  1  0  0  0  0
 50 96  1  0  0  0  0
M  END
> <PUBCHEM_COMPOUND_CID>
10417396

> <PUBCHEM_COMPOUND_CANONICALIZED>
1

> <PUBCHEM_CACTVS_COMPLEXITY>
1010

> <PUBCHEM_CACTVS_HBOND_ACCEPTOR>
17

> <PUBCHEM_CACTVS_HBOND_DONOR>
9

> <PUBCHEM_CACTVS_ROTATABLE_BOND>
13

> <PUBCHEM_CACTVS_SUBSKEYS>
AAADcfB8PgAAAAAAAAAAAAAAAAAAASAAAAA0aIEAAAAAAAABQAAAGgAACAAADRSwmAMyDoAABgCAAiBCAAACCAAgIAAIiAAGiIgdNyKEMRqieCKlwBUPqAfA4PwOoAABCAAAQABAAAIQAACAAAAAAAAAAA==

> <PUBCHEM_IUPAC_OPENEYE_NAME>
(2S,3R,4S,5S,6R)-2-[4-[[(3R,4R,5S)-5-[3,5-dimethoxy-4-[(2S,3R,4S,5S,6R)-3,4,5-trihydroxy-6-(hydroxymethyl)tetrahydropyran-2-yl]oxy-phenyl]-4-(hydroxymethyl)tetrahydrofuran-3-yl]methyl]-2-methoxy-phenoxy]-6-(hydroxymethyl)tetrahydropyran-3,4,5-triol

> <PUBCHEM_IUPAC_CAS_NAME>
(2S,3R,4S,5S,6R)-2-[4-[[(3R,4R,5S)-5-[3,5-dimethoxy-4-[[(2S,3R,4S,5S,6R)-3,4,5-trihydroxy-6-(hydroxymethyl)-2-oxanyl]oxy]phenyl]-4-(hydroxymethyl)-3-oxolanyl]methyl]-2-methoxyphenoxy]-6-(hydroxymethyl)oxane-3,4,5-triol

> <PUBCHEM_IUPAC_NAME_MARKUP>
(2<I>S</I>,3<I>R</I>,4<I>S</I>,5<I>S</I>,6<I>R</I>)-2-[4-[[(3<I>R</I>,4<I>R</I>,5<I>S</I>)-5-[3,5-dimethoxy-4-[(2<I>S</I>,3<I>R</I>,4<I>S</I>,5<I>S</I>,6<I>R</I>)-3,4,5-trihydroxy-6-(hydroxymethyl)oxan-2-yl]oxyphenyl]-4-(hydroxymethyl)oxolan-3-yl]methyl]-2-methoxyphenoxy]-6-(hydroxymethyl)oxane-3,4,5-triol

> <PUBCHEM_IUPAC_NAME>
(2S,3R,4S,5S,6R)-2-[4-[[(3R,4R,5S)-5-[3,5-dimethoxy-4-[(2S,3R,4S,5S,6R)-3,4,5-trihydroxy-6-(hydroxymethyl)oxan-2-yl]oxyphenyl]-4-(hydroxymethyl)oxolan-3-yl]methyl]-2-methoxyphenoxy]-6-(hydroxymethyl)oxane-3,4,5-triol

> <PUBCHEM_IUPAC_SYSTEMATIC_NAME>
(2R,3S,4S,5R,6S)-2-(hydroxymethyl)-6-[4-[[(3R,4R,5S)-4-(hydroxymethyl)-5-[4-[(2S,3R,4S,5S,6R)-6-(hydroxymethyl)-3,4,5-tris(oxidanyl)oxan-2-yl]oxy-3,5-dimethoxy-phenyl]oxolan-3-yl]methyl]-2-methoxy-phenoxy]oxane-3,4,5-triol

> <PUBCHEM_IUPAC_TRADITIONAL_NAME>
(2S,3R,4S,5S,6R)-2-[4-[[(3R,4R,5S)-5-[3,5-dimethoxy-4-[(2S,3R,4S,5S,6R)-3,4,5-trihydroxy-6-methylol-tetrahydropyran-2-yl]oxy-phenyl]-4-methylol-tetrahydrofuran-3-yl]methyl]-2-methoxy-phenoxy]-6-methylol-tetrahydropyran-3,4,5-triol

> <PUBCHEM_IUPAC_INCHI>
InChI=1S/C33H46O17/c1-43-19-7-14(4-5-18(19)47-32-28(41)26(39)24(37)22(11-35)48-32)6-16-13-46-30(17(16)10-34)15-8-20(44-2)31(21(9-15)45-3)50-33-29(42)27(40)25(38)23(12-36)49-33/h4-5,7-9,16-17,22-30,32-42H,6,10-13H2,1-3H3/t16-,17-,22+,23+,24+,25+,26-,27-,28+,29+,30+,32+,33-/m0/s1

> <PUBCHEM_IUPAC_INCHIKEY>
FMRHEQINXVLPNS-USRUCTJJSA-N

> <PUBCHEM_XLOGP3_AA>
-1.2

> <PUBCHEM_EXACT_MASS>
714.27349999

> <PUBCHEM_MOLECULAR_FORMULA>
C33H46O17

> <PUBCHEM_MOLECULAR_WEIGHT>
714.7

> <PUBCHEM_OPENEYE_CAN_SMILES>
COC1=CC(=CC(=C1OC2C(C(C(C(O2)CO)O)O)O)OC)C3C(C(CO3)CC4=CC(=C(C=C4)OC5C(C(C(C(O5)CO)O)O)O)OC)CO

> <PUBCHEM_OPENEYE_ISO_SMILES>
COC1=CC(=CC(=C1O[C@H]2[C@@H]([C@H]([C@@H]([C@H](O2)CO)O)O)O)OC)[C@@H]3[C@H]([C@H](CO3)CC4=CC(=C(C=C4)O[C@H]5[C@@H]([C@H]([C@@H]([C@H](O5)CO)O)O)O)OC)CO

> <PUBCHEM_CACTVS_TPSA>
256

> <PUBCHEM_MONOISOTOPIC_WEIGHT>
714.27349999

> <PUBCHEM_TOTAL_CHARGE>
0

> <PUBCHEM_HEAVY_ATOM_COUNT>
50

> <PUBCHEM_ATOM_DEF_STEREO_COUNT>
13

> <PUBCHEM_ATOM_UDEF_STEREO_COUNT>
0

> <PUBCHEM_BOND_DEF_STEREO_COUNT>
0

> <PUBCHEM_BOND_UDEF_STEREO_COUNT>
0

> <PUBCHEM_ISOTOPIC_ATOM_COUNT>
0

> <PUBCHEM_COMPONENT_COUNT>
1

> <PUBCHEM_CACTVS_TAUTO_COUNT>
-1

> <PUBCHEM_COORDINATE_TYPE>
1
5
255

> <PUBCHEM_BONDANNOTATIONS>
35  12  5
36  13  6
37  14  6
18  23  6
19  22  6
20  24  5
24  26  8
24  27  8
25  33  8
25  34  8
26  39  8
27  38  8
32  46  5
33  43  8
34  45  8
38  41  8
39  41  8
30  4  5
42  47  5
43  44  8
44  45  8
40  6  5
28  7  5
29  8  6
31  9  6

$$$$
