 
  -OEChem-10192103282D

 99104  0     1  0  0  0  0  0999 V2000
   12.1107    3.7008    0.0000 O   0  0  0  0  0  0  0  0  0  0  0  0
   11.4727    6.7024    0.0000 O   0  0  0  0  0  0  0  0  0  0  0  0
    9.4651    1.1076    0.0000 O   0  0  0  0  0  0  0  0  0  0  0  0
    7.7331    4.1076    0.0000 O   0  0  0  0  0  0  0  0  0  0  0  0
    7.7331    2.1076    0.0000 O   0  0  0  0  0  0  0  0  0  0  0  0
   15.5824    2.4078    0.0000 O   0  0  0  0  0  0  0  0  0  0  0  0
   16.7580    4.0259    0.0000 O   0  0  0  0  0  0  0  0  0  0  0  0
    5.1350   -3.3924    0.0000 O   0  0  0  0  0  0  0  0  0  0  0  0
    6.8671   -3.3924    0.0000 O   0  0  0  0  0  0  0  0  0  0  0  0
    5.1350   -6.3924    0.0000 O   0  0  0  0  0  0  0  0  0  0  0  0
    3.4030   -5.3924    0.0000 O   0  0  0  0  0  0  0  0  0  0  0  0
    6.8671   -5.3924    0.0000 O   0  0  0  0  0  0  0  0  0  0  0  0
    6.0010    1.1076    0.0000 O   0  0  0  0  0  0  0  0  0  0  0  0
    2.5369   -3.8924    0.0000 O   0  0  0  0  0  0  0  0  0  0  0  0
    8.5991   -0.3924    0.0000 O   0  0  0  0  0  0  0  0  0  0  0  0
    5.1350   -2.3924    0.0000 O   0  0  0  0  0  0  0  0  0  0  0  0
   11.3017    5.1021    0.0000 C   0  0  2  0  0  0  0  0  0  0  0  0
   12.2799    5.3100    0.0000 C   0  0  1  0  0  0  0  0  0  0  0  0
   11.1972    4.1076    0.0000 C   0  0  2  0  0  0  0  0  0  0  0  0
   12.7799    4.4440    0.0000 C   0  0  1  0  0  0  0  0  0  0  0  0
   10.8069    5.9643    0.0000 C   0  0  0  0  0  0  0  0  0  0  0  0
   12.3812    6.2989    0.0000 C   0  0  0  0  0  0  0  0  0  0  0  0
   10.3312    3.6076    0.0000 C   0  0  0  0  0  0  0  0  0  0  0  0
   13.7744    4.3394    0.0000 C   0  0  0  0  0  0  0  0  0  0  0  0
    9.4651    4.1076    0.0000 C   0  0  0  0  0  0  0  0  0  0  0  0
   10.3312    2.6076    0.0000 C   0  0  0  0  0  0  0  0  0  0  0  0
   14.1811    3.4259    0.0000 C   0  0  0  0  0  0  0  0  0  0  0  0
   14.3622    5.1485    0.0000 C   0  0  0  0  0  0  0  0  0  0  0  0
    9.4651    2.1076    0.0000 C   0  0  0  0  0  0  0  0  0  0  0  0
    8.5991    3.6076    0.0000 C   0  0  0  0  0  0  0  0  0  0  0  0
   15.1756    3.3214    0.0000 C   0  0  0  0  0  0  0  0  0  0  0  0
   15.3567    5.0439    0.0000 C   0  0  0  0  0  0  0  0  0  0  0  0
    8.5991    2.6076    0.0000 C   0  0  0  0  0  0  0  0  0  0  0  0
   15.7634    4.1304    0.0000 C   0  0  0  0  0  0  0  0  0  0  0  0
    5.1350   -5.3924    0.0000 C   0  0  1  0  0  0  0  0  0  0  0  0
    4.2690   -4.8924    0.0000 C   0  0  1  0  0  0  0  0  0  0  0  0
    7.7331    1.1076    0.0000 C   0  0  1  0  0  0  0  0  0  0  0  0
    6.0010   -4.8924    0.0000 C   0  0  2  0  0  0  0  0  0  0  0  0
    4.2690   -3.8924    0.0000 C   0  0  1  0  0  0  0  0  0  0  0  0
    6.0010   -3.8924    0.0000 C   0  0  1  0  0  0  0  0  0  0  0  0
    6.8671    0.6076    0.0000 C   0  0  2  0  0  0  0  0  0  0  0  0
   10.3312    0.6076    0.0000 C   0  0  0  0  0  0  0  0  0  0  0  0
    7.7331    5.1076    0.0000 C   0  0  0  0  0  0  0  0  0  0  0  0
   16.5769    2.3033    0.0000 C   0  0  0  0  0  0  0  0  0  0  0  0
    3.4030   -3.3924    0.0000 C   0  0  0  0  0  0  0  0  0  0  0  0
    8.5991    0.6076    0.0000 C   0  0  0  0  0  0  0  0  0  0  0  0
    6.8671   -0.3924    0.0000 C   0  0  0  0  0  0  0  0  0  0  0  0
    6.8671   -2.3924    0.0000 C   0  0  0  0  0  0  0  0  0  0  0  0
    6.0010   -0.8924    0.0000 C   0  0  0  0  0  0  0  0  0  0  0  0
    7.7331   -0.8924    0.0000 C   0  0  0  0  0  0  0  0  0  0  0  0
    6.0010   -1.8924    0.0000 C   0  0  0  0  0  0  0  0  0  0  0  0
    7.7331   -1.8924    0.0000 C   0  0  0  0  0  0  0  0  0  0  0  0
    4.2690   -1.8924    0.0000 C   0  0  0  0  0  0  0  0  0  0  0  0
   10.4701    4.9264    0.0000 H   0  0  0  0  0  0  0  0  0  0  0  0
   13.1111    5.4878    0.0000 H   0  0  0  0  0  0  0  0  0  0  0  0
   11.2296    3.4884    0.0000 H   0  0  0  0  0  0  0  0  0  0  0  0
   13.0021    3.8652    0.0000 H   0  0  0  0  0  0  0  0  0  0  0  0
   10.3927    6.4256    0.0000 H   0  0  0  0  0  0  0  0  0  0  0  0
   10.3046    5.6009    0.0000 H   0  0  0  0  0  0  0  0  0  0  0  0
   12.9879    6.1712    0.0000 H   0  0  0  0  0  0  0  0  0  0  0  0
   12.5719    6.8888    0.0000 H   0  0  0  0  0  0  0  0  0  0  0  0
    9.4651    4.7276    0.0000 H   0  0  0  0  0  0  0  0  0  0  0  0
   10.8681    2.2976    0.0000 H   0  0  0  0  0  0  0  0  0  0  0  0
   13.8167    2.9243    0.0000 H   0  0  0  0  0  0  0  0  0  0  0  0
   14.1100    5.7149    0.0000 H   0  0  0  0  0  0  0  0  0  0  0  0
   15.7211    5.5455    0.0000 H   0  0  0  0  0  0  0  0  0  0  0  0
    4.5981   -5.7024    0.0000 H   0  0  0  0  0  0  0  0  0  0  0  0
    4.2690   -5.5124    0.0000 H   0  0  0  0  0  0  0  0  0  0  0  0
    7.1962    1.4176    0.0000 H   0  0  0  0  0  0  0  0  0  0  0  0
    6.0010   -5.5124    0.0000 H   0  0  0  0  0  0  0  0  0  0  0  0
    4.2690   -3.2724    0.0000 H   0  0  0  0  0  0  0  0  0  0  0  0
    6.0010   -3.2724    0.0000 H   0  0  0  0  0  0  0  0  0  0  0  0
   17.1224    4.5274    0.0000 H   0  0  0  0  0  0  0  0  0  0  0  0
    6.3301    0.2976    0.0000 H   0  0  0  0  0  0  0  0  0  0  0  0
   10.0212    0.0706    0.0000 H   0  0  0  0  0  0  0  0  0  0  0  0
   10.8681    0.2976    0.0000 H   0  0  0  0  0  0  0  0  0  0  0  0
   10.6412    1.1445    0.0000 H   0  0  0  0  0  0  0  0  0  0  0  0
    8.3531    5.1076    0.0000 H   0  0  0  0  0  0  0  0  0  0  0  0
    7.7331    5.7276    0.0000 H   0  0  0  0  0  0  0  0  0  0  0  0
    7.1131    5.1076    0.0000 H   0  0  0  0  0  0  0  0  0  0  0  0
    3.8015   -2.9175    0.0000 H   0  0  0  0  0  0  0  0  0  0  0  0
    3.0044   -2.9175    0.0000 H   0  0  0  0  0  0  0  0  0  0  0  0
   16.5121    1.6867    0.0000 H   0  0  0  0  0  0  0  0  0  0  0  0
   17.1935    2.2385    0.0000 H   0  0  0  0  0  0  0  0  0  0  0  0
   16.6417    2.9199    0.0000 H   0  0  0  0  0  0  0  0  0  0  0  0
    9.2097    0.4999    0.0000 H   0  0  0  0  0  0  0  0  0  0  0  0
    8.8112    1.1902    0.0000 H   0  0  0  0  0  0  0  0  0  0  0  0
    5.6720   -6.7024    0.0000 H   0  0  0  0  0  0  0  0  0  0  0  0
    3.4030   -6.0124    0.0000 H   0  0  0  0  0  0  0  0  0  0  0  0
    7.4040   -5.0824    0.0000 H   0  0  0  0  0  0  0  0  0  0  0  0
    5.4641   -0.5824    0.0000 H   0  0  0  0  0  0  0  0  0  0  0  0
    8.2700   -0.5824    0.0000 H   0  0  0  0  0  0  0  0  0  0  0  0
    8.2700   -2.2024    0.0000 H   0  0  0  0  0  0  0  0  0  0  0  0
    6.0010    1.7276    0.0000 H   0  0  0  0  0  0  0  0  0  0  0  0
    2.0000   -3.5824    0.0000 H   0  0  0  0  0  0  0  0  0  0  0  0
    9.1360   -0.7024    0.0000 H   0  0  0  0  0  0  0  0  0  0  0  0
    4.5790   -1.3555    0.0000 H   0  0  0  0  0  0  0  0  0  0  0  0
    3.7320   -1.5824    0.0000 H   0  0  0  0  0  0  0  0  0  0  0  0
    3.9590   -2.4294    0.0000 H   0  0  0  0  0  0  0  0  0  0  0  0
  1 19  1  0  0  0  0
  1 20  1  0  0  0  0
  2 21  1  0  0  0  0
  2 22  1  0  0  0  0
  3 29  1  0  0  0  0
  3 42  1  0  0  0  0
  4 30  1  0  0  0  0
  4 43  1  0  0  0  0
  5 33  1  0  0  0  0
 37  5  1  6  0  0  0
  6 31  1  0  0  0  0
  6 44  1  0  0  0  0
  7 34  1  0  0  0  0
  7 73  1  0  0  0  0
  8 39  1  0  0  0  0
  8 40  1  0  0  0  0
 40  9  1  1  0  0  0
  9 48  1  0  0  0  0
 35 10  1  1  0  0  0
 10 88  1  0  0  0  0
 36 11  1  6  0  0  0
 11 89  1  0  0  0  0
 38 12  1  6  0  0  0
 12 90  1  0  0  0  0
 41 13  1  6  0  0  0
 13 94  1  0  0  0  0
 14 45  1  0  0  0  0
 14 95  1  0  0  0  0
 15 46  1  0  0  0  0
 15 96  1  0  0  0  0
 16 51  1  0  0  0  0
 16 53  1  0  0  0  0
 17 18  1  0  0  0  0
 17 19  1  0  0  0  0
 17 21  1  0  0  0  0
 17 54  1  1  0  0  0
 18 20  1  0  0  0  0
 18 22  1  0  0  0  0
 18 55  1  1  0  0  0
 19 23  1  1  0  0  0
 19 56  1  0  0  0  0
 20 24  1  1  0  0  0
 20 57  1  0  0  0  0
 21 58  1  0  0  0  0
 21 59  1  0  0  0  0
 22 60  1  0  0  0  0
 22 61  1  0  0  0  0
 23 25  2  0  0  0  0
 23 26  1  0  0  0  0
 24 27  2  0  0  0  0
 24 28  1  0  0  0  0
 25 30  1  0  0  0  0
 25 62  1  0  0  0  0
 26 29  2  0  0  0  0
 26 63  1  0  0  0  0
 27 31  1  0  0  0  0
 27 64  1  0  0  0  0
 28 32  2  0  0  0  0
 28 65  1  0  0  0  0
 29 33  1  0  0  0  0
 30 33  2  0  0  0  0
 31 34  2  0  0  0  0
 32 34  1  0  0  0  0
 32 66  1  0  0  0  0
 35 36  1  0  0  0  0
 35 38  1  0  0  0  0
 35 67  1  0  0  0  0
 36 39  1  0  0  0  0
 36 68  1  0  0  0  0
 37 41  1  0  0  0  0
 37 46  1  0  0  0  0
 37 69  1  0  0  0  0
 38 40  1  0  0  0  0
 38 70  1  0  0  0  0
 39 45  1  1  0  0  0
 39 71  1  0  0  0  0
 40 72  1  0  0  0  0
 41 47  1  0  0  0  0
 41 74  1  0  0  0  0
 42 75  1  0  0  0  0
 42 76  1  0  0  0  0
 42 77  1  0  0  0  0
 43 78  1  0  0  0  0
 43 79  1  0  0  0  0
 43 80  1  0  0  0  0
 44 83  1  0  0  0  0
 44 84  1  0  0  0  0
 44 85  1  0  0  0  0
 45 81  1  0  0  0  0
 45 82  1  0  0  0  0
 46 86  1  0  0  0  0
 46 87  1  0  0  0  0
 47 49  2  0  0  0  0
 47 50  1  0  0  0  0
 48 51  2  0  0  0  0
 48 52  1  0  0  0  0
 49 51  1  0  0  0  0
 49 91  1  0  0  0  0
 50 52  2  0  0  0  0
 50 92  1  0  0  0  0
 52 93  1  0  0  0  0
 53 97  1  0  0  0  0
 53 98  1  0  0  0  0
 53 99  1  0  0  0  0
M  END
> <PUBCHEM_COMPOUND_CID>
101937513

> <PUBCHEM_COMPOUND_CANONICALIZED>
1

> <PUBCHEM_CACTVS_COMPLEXITY>
1110

> <PUBCHEM_CACTVS_HBOND_ACCEPTOR>
16

> <PUBCHEM_CACTVS_HBOND_DONOR>
7

> <PUBCHEM_CACTVS_ROTATABLE_BOND>
14

> <PUBCHEM_CACTVS_SUBSKEYS>
AAADcfB8PgAAAAAAAAAAAAAAAAAAASJAAAA0YMEAAAASAAABUAAAGgAACAAADRSwmAMyDoAABgCAAiBCAAACCAAgIAAIiAAGiIgdNyKGMRqieCOlwBUPuAfA4PwOoAABCAAAQABAAAIQAACAAAAAAAAAAA==

> <PUBCHEM_IUPAC_OPENEYE_NAME>
(2S,3R,4S,5S,6R)-2-[4-[(1S,2R)-2-[4-[(3aS,4R,6S,6aR)-6-(4-hydroxy-3-methoxy-phenyl)-1,3,3a,4,6,6a-hexahydrofuro[3,4-c]furan-4-yl]-2,6-dimethoxy-phenoxy]-1,3-dihydroxy-propyl]-2-methoxy-phenoxy]-6-(hydroxymethyl)tetrahydropyran-3,4,5-triol

> <PUBCHEM_IUPAC_CAS_NAME>
(2S,3R,4S,5S,6R)-2-[4-[(1S,2R)-2-[4-[(3aS,4R,6S,6aR)-6-(4-hydroxy-3-methoxyphenyl)-1,3,3a,4,6,6a-hexahydrofuro[3,4-c]furan-4-yl]-2,6-dimethoxyphenoxy]-1,3-dihydroxypropyl]-2-methoxyphenoxy]-6-(hydroxymethyl)oxane-3,4,5-triol

> <PUBCHEM_IUPAC_NAME_MARKUP>
(2<I>S</I>,3<I>R</I>,4<I>S</I>,5<I>S</I>,6<I>R</I>)-2-[4-[(1<I>S</I>,2<I>R</I>)-2-[4-[(3<I>a</I><I>S</I>,4<I>R</I>,6<I>S</I>,6<I>a</I><I>R</I>)-6-(4-hydroxy-3-methoxyphenyl)-1,3,3<I>a</I>,4,6,6<I>a</I>-hexahydrofuro[3,4-c]furan-4-yl]-2,6-dimethoxyphenoxy]-1,3-dihydroxypropyl]-2-methoxyphenoxy]-6-(hydroxymethyl)oxane-3,4,5-triol

> <PUBCHEM_IUPAC_NAME>
(2S,3R,4S,5S,6R)-2-[4-[(1S,2R)-2-[4-[(3aS,4R,6S,6aR)-6-(4-hydroxy-3-methoxyphenyl)-1,3,3a,4,6,6a-hexahydrofuro[3,4-c]furan-4-yl]-2,6-dimethoxyphenoxy]-1,3-dihydroxypropyl]-2-methoxyphenoxy]-6-(hydroxymethyl)oxane-3,4,5-triol

> <PUBCHEM_IUPAC_SYSTEMATIC_NAME>
(2S,3R,4S,5S,6R)-2-[4-[(1S,2R)-2-[4-[(3aS,4R,6S,6aR)-6-(3-methoxy-4-oxidanyl-phenyl)-1,3,3a,4,6,6a-hexahydrofuro[3,4-c]furan-4-yl]-2,6-dimethoxy-phenoxy]-1,3-bis(oxidanyl)propyl]-2-methoxy-phenoxy]-6-(hydroxymethyl)oxane-3,4,5-triol

> <PUBCHEM_IUPAC_TRADITIONAL_NAME>
(2S,3R,4S,5S,6R)-2-[4-[(1S,2R)-2-[4-[(3aS,4R,6S,6aR)-6-(4-hydroxy-3-methoxy-phenyl)-1,3,3a,4,6,6a-hexahydrofuro[3,4-c]furan-4-yl]-2,6-dimethoxy-phenoxy]-1,3-dihydroxy-propyl]-2-methoxy-phenoxy]-6-methylol-tetrahydropyran-3,4,5-triol

> <PUBCHEM_IUPAC_INCHI>
InChI=1S/C37H46O16/c1-45-24-10-18(5-7-22(24)40)34-20-15-49-16-21(20)35(53-34)19-11-26(47-3)36(27(12-19)48-4)50-28(13-38)30(41)17-6-8-23(25(9-17)46-2)51-37-33(44)32(43)31(42)29(14-39)52-37/h5-12,20-21,28-35,37-44H,13-16H2,1-4H3/t20-,21+,28+,29+,30-,31+,32-,33+,34+,35-,37+/m0/s1

> <PUBCHEM_IUPAC_INCHIKEY>
BRQYJHIEKGIPFQ-JHRUNPBYSA-N

> <PUBCHEM_XLOGP3_AA>
0.6

> <PUBCHEM_EXACT_MASS>
746.27858538

> <PUBCHEM_MOLECULAR_FORMULA>
C37H46O16

> <PUBCHEM_MOLECULAR_WEIGHT>
746.7

> <PUBCHEM_OPENEYE_CAN_SMILES>
COC1=CC(=CC(=C1OC(CO)C(C2=CC(=C(C=C2)OC3C(C(C(C(O3)CO)O)O)O)OC)O)OC)C4C5COCC5C(O4)C6=CC(=C(C=C6)O)OC

> <PUBCHEM_OPENEYE_ISO_SMILES>
COC1=CC(=CC(=C1O[C@H](CO)[C@H](C2=CC(=C(C=C2)O[C@H]3[C@@H]([C@H]([C@@H]([C@H](O3)CO)O)O)O)OC)O)OC)[C@H]4[C@@H]5COC[C@@H]5[C@H](O4)C6=CC(=C(C=C6)O)OC

> <PUBCHEM_CACTVS_TPSA>
225

> <PUBCHEM_MONOISOTOPIC_WEIGHT>
746.27858538

> <PUBCHEM_TOTAL_CHARGE>
0

> <PUBCHEM_HEAVY_ATOM_COUNT>
53

> <PUBCHEM_ATOM_DEF_STEREO_COUNT>
11

> <PUBCHEM_ATOM_UDEF_STEREO_COUNT>
0

> <PUBCHEM_BOND_DEF_STEREO_COUNT>
0

> <PUBCHEM_BOND_UDEF_STEREO_COUNT>
0

> <PUBCHEM_ISOTOPIC_ATOM_COUNT>
0

> <PUBCHEM_COMPONENT_COUNT>
1

> <PUBCHEM_CACTVS_TAUTO_COUNT>
-1

> <PUBCHEM_COORDINATE_TYPE>
1
5
255

> <PUBCHEM_BONDANNOTATIONS>
35  10  5
36  11  6
38  12  6
41  13  6
17  54  5
18  55  5
19  23  5
20  24  5
23  25  8
23  26  8
24  27  8
24  28  8
25  30  8
26  29  8
27  31  8
28  32  8
29  33  8
30  33  8
31  34  8
32  34  8
39  45  5
47  49  8
47  50  8
48  51  8
48  52  8
49  51  8
37  5  6
50  52  8
40  9  5

$$$$
