 
  -OEChem-10192104292D

 45 44  0     0  0  0  0  0  0999 V2000
   10.6603   -0.7500    0.0000 O   0  0  0  0  0  0  0  0  0  0  0  0
   17.5885    0.2500    0.0000 O   0  0  0  0  0  0  0  0  0  0  0  0
   16.7224    1.7500    0.0000 O   0  0  0  0  0  0  0  0  0  0  0  0
   13.2583    0.7500    0.0000 C   0  0  0  0  0  0  0  0  0  0  0  0
   14.1244    0.2500    0.0000 C   0  0  0  0  0  0  0  0  0  0  0  0
   12.3923    0.2500    0.0000 C   0  0  0  0  0  0  0  0  0  0  0  0
   14.9904    0.7500    0.0000 C   0  0  0  0  0  0  0  0  0  0  0  0
   11.5263    0.7500    0.0000 C   0  0  0  0  0  0  0  0  0  0  0  0
   15.8564    0.2500    0.0000 C   0  0  0  0  0  0  0  0  0  0  0  0
   10.6603    0.2500    0.0000 C   0  0  0  0  0  0  0  0  0  0  0  0
   16.7224    0.7500    0.0000 C   0  0  0  0  0  0  0  0  0  0  0  0
    9.7942    0.7500    0.0000 C   0  0  0  0  0  0  0  0  0  0  0  0
    4.5981   -1.2500    0.0000 C   0  0  0  0  0  0  0  0  0  0  0  0
    3.7320   -1.7500    0.0000 C   0  0  0  0  0  0  0  0  0  0  0  0
    5.4641   -1.7500    0.0000 C   0  0  0  0  0  0  0  0  0  0  0  0
    8.9282    0.2500    0.0000 C   0  0  0  0  0  0  0  0  0  0  0  0
    2.8660   -1.2500    0.0000 C   0  0  0  0  0  0  0  0  0  0  0  0
    6.3301   -1.2500    0.0000 C   0  0  0  0  0  0  0  0  0  0  0  0
    8.0622   -0.2500    0.0000 C   0  0  0  0  0  0  0  0  0  0  0  0
    7.1962   -0.7500    0.0000 C   0  0  0  0  0  0  0  0  0  0  0  0
    2.0000   -1.7500    0.0000 C   0  0  0  0  0  0  0  0  0  0  0  0
   13.6569    1.2250    0.0000 H   0  0  0  0  0  0  0  0  0  0  0  0
   12.8598    1.2250    0.0000 H   0  0  0  0  0  0  0  0  0  0  0  0
   13.7258   -0.2249    0.0000 H   0  0  0  0  0  0  0  0  0  0  0  0
   14.5229   -0.2249    0.0000 H   0  0  0  0  0  0  0  0  0  0  0  0
   11.9938   -0.2249    0.0000 H   0  0  0  0  0  0  0  0  0  0  0  0
   12.7908   -0.2249    0.0000 H   0  0  0  0  0  0  0  0  0  0  0  0
   15.3889    1.2250    0.0000 H   0  0  0  0  0  0  0  0  0  0  0  0
   14.5919    1.2250    0.0000 H   0  0  0  0  0  0  0  0  0  0  0  0
   11.9248    1.2250    0.0000 H   0  0  0  0  0  0  0  0  0  0  0  0
   11.1278    1.2250    0.0000 H   0  0  0  0  0  0  0  0  0  0  0  0
   15.4579   -0.2249    0.0000 H   0  0  0  0  0  0  0  0  0  0  0  0
   16.2549   -0.2249    0.0000 H   0  0  0  0  0  0  0  0  0  0  0  0
   10.1928    1.2250    0.0000 H   0  0  0  0  0  0  0  0  0  0  0  0
    9.3957    1.2250    0.0000 H   0  0  0  0  0  0  0  0  0  0  0  0
    4.9966   -0.7751    0.0000 H   0  0  0  0  0  0  0  0  0  0  0  0
    4.1996   -0.7751    0.0000 H   0  0  0  0  0  0  0  0  0  0  0  0
    3.3335   -2.2250    0.0000 H   0  0  0  0  0  0  0  0  0  0  0  0
    4.1306   -2.2250    0.0000 H   0  0  0  0  0  0  0  0  0  0  0  0
    5.0656   -2.2250    0.0000 H   0  0  0  0  0  0  0  0  0  0  0  0
    5.8626   -2.2250    0.0000 H   0  0  0  0  0  0  0  0  0  0  0  0
   18.1254    0.5600    0.0000 H   0  0  0  0  0  0  0  0  0  0  0  0
    2.8660   -0.6300    0.0000 H   0  0  0  0  0  0  0  0  0  0  0  0
    1.4631   -1.4400    0.0000 H   0  0  0  0  0  0  0  0  0  0  0  0
    2.0000   -2.3700    0.0000 H   0  0  0  0  0  0  0  0  0  0  0  0
  1 10  2  0  0  0  0
  2 11  1  0  0  0  0
  2 42  1  0  0  0  0
  3 11  2  0  0  0  0
  4  5  1  0  0  0  0
  4  6  1  0  0  0  0
  4 22  1  0  0  0  0
  4 23  1  0  0  0  0
  5  7  1  0  0  0  0
  5 24  1  0  0  0  0
  5 25  1  0  0  0  0
  6  8  1  0  0  0  0
  6 26  1  0  0  0  0
  6 27  1  0  0  0  0
  7  9  1  0  0  0  0
  7 28  1  0  0  0  0
  7 29  1  0  0  0  0
  8 10  1  0  0  0  0
  8 30  1  0  0  0  0
  8 31  1  0  0  0  0
  9 11  1  0  0  0  0
  9 32  1  0  0  0  0
  9 33  1  0  0  0  0
 10 12  1  0  0  0  0
 12 16  1  0  0  0  0
 12 34  1  0  0  0  0
 12 35  1  0  0  0  0
 13 14  1  0  0  0  0
 13 15  1  0  0  0  0
 13 36  1  0  0  0  0
 13 37  1  0  0  0  0
 14 17  1  0  0  0  0
 14 38  1  0  0  0  0
 14 39  1  0  0  0  0
 15 18  1  0  0  0  0
 15 40  1  0  0  0  0
 15 41  1  0  0  0  0
 16 19  3  0  0  0  0
 17 21  2  0  0  0  0
 17 43  1  0  0  0  0
 18 20  3  0  0  0  0
 19 20  1  0  0  0  0
 21 44  1  0  0  0  0
 21 45  1  0  0  0  0
M  END
> <PUBCHEM_COMPOUND_CID>
131839757

> <PUBCHEM_COMPOUND_CANONICALIZED>
1

> <PUBCHEM_CACTVS_COMPLEXITY>
462

> <PUBCHEM_CACTVS_HBOND_ACCEPTOR>
3

> <PUBCHEM_CACTVS_HBOND_DONOR>
1

> <PUBCHEM_CACTVS_ROTATABLE_BOND>
12

> <PUBCHEM_CACTVS_SUBSKEYS>
AAADceB4MAAAAAAAAAAAAAAAAAAAAAAAAAAAAAAAAAAAAAAAAAAAGgAACAAACASAgAAACAAAAgDIEKDSCAgAAAAgAAAIAAEAAAgAABIAAQAAQAAEgAAAAAGIyKCAAAAAAAAAAAAAAAAAAAAAAAAAAAAAAA==

> <PUBCHEM_IUPAC_OPENEYE_NAME>
8-oxooctadec-17-en-10,12-diynoic acid

> <PUBCHEM_IUPAC_CAS_NAME>
8-oxooctadec-17-en-10,12-diynoic acid

> <PUBCHEM_IUPAC_NAME_MARKUP>
8-oxooctadec-17-en-10,12-diynoic acid

> <PUBCHEM_IUPAC_NAME>
8-oxooctadec-17-en-10,12-diynoic acid

> <PUBCHEM_IUPAC_SYSTEMATIC_NAME>
8-oxidanylideneoctadec-17-en-10,12-diynoic acid

> <PUBCHEM_IUPAC_TRADITIONAL_NAME>
8-ketooctadec-17-en-10,12-diynoic acid

> <PUBCHEM_IUPAC_INCHI>
InChI=1S/C18H24O3/c1-2-3-4-5-6-7-8-11-14-17(19)15-12-9-10-13-16-18(20)21/h2H,1,3-5,9-10,12-16H2,(H,20,21)

> <PUBCHEM_IUPAC_INCHIKEY>
IQGYACGOYNDOBT-UHFFFAOYSA-N

> <PUBCHEM_XLOGP3_AA>
3.8

> <PUBCHEM_EXACT_MASS>
288.17254462

> <PUBCHEM_MOLECULAR_FORMULA>
C18H24O3

> <PUBCHEM_MOLECULAR_WEIGHT>
288.4

> <PUBCHEM_OPENEYE_CAN_SMILES>
C=CCCCC#CC#CCC(=O)CCCCCCC(=O)O

> <PUBCHEM_OPENEYE_ISO_SMILES>
C=CCCCC#CC#CCC(=O)CCCCCCC(=O)O

> <PUBCHEM_CACTVS_TPSA>
54.4

> <PUBCHEM_MONOISOTOPIC_WEIGHT>
288.17254462

> <PUBCHEM_TOTAL_CHARGE>
0

> <PUBCHEM_HEAVY_ATOM_COUNT>
21

> <PUBCHEM_ATOM_DEF_STEREO_COUNT>
0

> <PUBCHEM_ATOM_UDEF_STEREO_COUNT>
0

> <PUBCHEM_BOND_DEF_STEREO_COUNT>
0

> <PUBCHEM_BOND_UDEF_STEREO_COUNT>
0

> <PUBCHEM_ISOTOPIC_ATOM_COUNT>
0

> <PUBCHEM_COMPONENT_COUNT>
1

> <PUBCHEM_CACTVS_TAUTO_COUNT>
-1

> <PUBCHEM_COORDINATE_TYPE>
1
5
255

$$$$
