 
  -OEChem-10192104412D

 50 53  0     1  0  0  0  0  0999 V2000
    2.4824    0.6170    0.0000 O   0  0  0  0  0  0  0  0  0  0  0  0
    6.6049   -2.7984    0.0000 O   0  0  0  0  0  0  0  0  0  0  0  0
    7.7603    1.5136    0.0000 O   0  0  0  0  0  0  0  0  0  0  0  0
    4.9318   -3.2467    0.0000 O   0  0  0  0  0  0  0  0  0  0  0  0
    6.5355    2.7384    0.0000 O   0  0  0  0  0  0  0  0  0  0  0  0
    4.6730   -0.8665    0.0000 C   0  0  3  0  0  0  0  0  0  0  0  0
    5.1213    0.8065    0.0000 C   0  0  3  0  0  0  0  0  0  0  0  0
    3.7071   -0.6077    0.0000 C   0  0  3  0  0  0  0  0  0  0  0  0
    4.1554    1.0653    0.0000 C   0  0  3  0  0  0  0  0  0  0  0  0
    5.3801   -1.5736    0.0000 C   0  0  3  0  0  0  0  0  0  0  0  0
    6.0872    1.0653    0.0000 C   0  0  3  0  0  0  0  0  0  0  0  0
    3.0000   -1.3148    0.0000 C   0  0  0  0  0  0  0  0  0  0  0  0
    3.8966    2.0312    0.0000 C   0  0  0  0  0  0  0  0  0  0  0  0
    5.6390   -0.6077    0.0000 C   0  0  0  0  0  0  0  0  0  0  0  0
    5.8284    0.0994    0.0000 C   0  0  0  0  0  0  0  0  0  0  0  0
    3.4483    0.3582    0.0000 C   0  0  0  0  0  0  0  0  0  0  0  0
    3.0000   -2.3148    0.0000 C   0  0  0  0  0  0  0  0  0  0  0  0
    2.0000   -1.3148    0.0000 C   0  0  0  0  0  0  0  0  0  0  0  0
    3.0306    2.5312    0.0000 C   0  0  0  0  0  0  0  0  0  0  0  0
    4.3966    2.8973    0.0000 C   0  0  0  0  0  0  0  0  0  0  0  0
    2.0000   -2.3148    0.0000 C   0  0  0  0  0  0  0  0  0  0  0  0
    3.5306    3.3973    0.0000 C   0  0  0  0  0  0  0  0  0  0  0  0
    5.6390   -2.5396    0.0000 C   0  0  0  0  0  0  0  0  0  0  0  0
    6.7944    1.7724    0.0000 C   0  0  0  0  0  0  0  0  0  0  0  0
    4.6730   -0.2465    0.0000 H   0  0  0  0  0  0  0  0  0  0  0  0
    4.8113    0.2696    0.0000 H   0  0  0  0  0  0  0  0  0  0  0  0
    4.1455   -0.1693    0.0000 H   0  0  0  0  0  0  0  0  0  0  0  0
    3.5565    1.2258    0.0000 H   0  0  0  0  0  0  0  0  0  0  0  0
    4.8432   -1.8836    0.0000 H   0  0  0  0  0  0  0  0  0  0  0  0
    5.7773    1.6022    0.0000 H   0  0  0  0  0  0  0  0  0  0  0  0
    3.5728   -1.5521    0.0000 H   0  0  0  0  0  0  0  0  0  0  0  0
    3.4047    1.6538    0.0000 H   0  0  0  0  0  0  0  0  0  0  0  0
    6.2566   -0.6618    0.0000 H   0  0  0  0  0  0  0  0  0  0  0  0
    5.5849    0.0099    0.0000 H   0  0  0  0  0  0  0  0  0  0  0  0
    5.4728   -0.4085    0.0000 H   0  0  0  0  0  0  0  0  0  0  0  0
    6.3903   -0.1626    0.0000 H   0  0  0  0  0  0  0  0  0  0  0  0
    3.0000   -2.9348    0.0000 H   0  0  0  0  0  0  0  0  0  0  0  0
    3.6200   -2.3148    0.0000 H   0  0  0  0  0  0  0  0  0  0  0  0
    2.0000   -0.6948    0.0000 H   0  0  0  0  0  0  0  0  0  0  0  0
    1.3800   -1.3148    0.0000 H   0  0  0  0  0  0  0  0  0  0  0  0
    2.4936    2.8412    0.0000 H   0  0  0  0  0  0  0  0  0  0  0  0
    2.7205    1.9943    0.0000 H   0  0  0  0  0  0  0  0  0  0  0  0
    4.9335    2.5873    0.0000 H   0  0  0  0  0  0  0  0  0  0  0  0
    4.7066    3.4342    0.0000 H   0  0  0  0  0  0  0  0  0  0  0  0
    1.3800   -2.3148    0.0000 H   0  0  0  0  0  0  0  0  0  0  0  0
    2.0000   -2.9348    0.0000 H   0  0  0  0  0  0  0  0  0  0  0  0
    3.8406    3.9342    0.0000 H   0  0  0  0  0  0  0  0  0  0  0  0
    2.9936    3.7073    0.0000 H   0  0  0  0  0  0  0  0  0  0  0  0
    6.7654   -3.3973    0.0000 H   0  0  0  0  0  0  0  0  0  0  0  0
    8.1987    1.9520    0.0000 H   0  0  0  0  0  0  0  0  0  0  0  0
  1 16  2  0  0  0  0
  2 23  1  0  0  0  0
  2 49  1  0  0  0  0
  3 24  1  0  0  0  0
  3 50  1  0  0  0  0
  4 23  2  0  0  0  0
  5 24  2  0  0  0  0
  6  8  1  0  0  0  0
  6 10  1  0  0  0  0
  6 14  1  0  0  0  0
  6 25  1  0  0  0  0
  7  9  1  0  0  0  0
  7 11  1  0  0  0  0
  7 15  1  0  0  0  0
  7 26  1  0  0  0  0
  8 12  1  0  0  0  0
  8 16  1  0  0  0  0
  8 27  1  0  0  0  0
  9 13  1  0  0  0  0
  9 16  1  0  0  0  0
  9 28  1  0  0  0  0
 10 14  1  0  0  0  0
 10 23  1  0  0  0  0
 10 29  1  0  0  0  0
 11 15  1  0  0  0  0
 11 24  1  0  0  0  0
 11 30  1  0  0  0  0
 12 17  1  0  0  0  0
 12 18  1  0  0  0  0
 12 31  1  0  0  0  0
 13 19  1  0  0  0  0
 13 20  1  0  0  0  0
 13 32  1  0  0  0  0
 14 33  1  0  0  0  0
 14 34  1  0  0  0  0
 15 35  1  0  0  0  0
 15 36  1  0  0  0  0
 17 21  1  0  0  0  0
 17 37  1  0  0  0  0
 17 38  1  0  0  0  0
 18 21  1  0  0  0  0
 18 39  1  0  0  0  0
 18 40  1  0  0  0  0
 19 22  1  0  0  0  0
 19 41  1  0  0  0  0
 19 42  1  0  0  0  0
 20 22  1  0  0  0  0
 20 43  1  0  0  0  0
 20 44  1  0  0  0  0
 21 45  1  0  0  0  0
 21 46  1  0  0  0  0
 22 47  1  0  0  0  0
 22 48  1  0  0  0  0
M  END
> <PUBCHEM_COMPOUND_CID>
70108075

> <PUBCHEM_COMPOUND_CANONICALIZED>
1

> <PUBCHEM_CACTVS_COMPLEXITY>
514

> <PUBCHEM_CACTVS_HBOND_ACCEPTOR>
5

> <PUBCHEM_CACTVS_HBOND_DONOR>
2

> <PUBCHEM_CACTVS_ROTATABLE_BOND>
8

> <PUBCHEM_CACTVS_SUBSKEYS>
AAADceB4OAAAAAAAAAAAAAAAGDBgwAAAAAAAAAAAAAAAAAAAAAAAGgAACAAADQSAgAAACAAAAgAIAICQCAAAAAAAAAAAAAEAAAAAABIAAAAAQAAEAAAAAAGIzvCugAAAAAAAAAAAAAAAAAAAAAAAAAAAAA==

> <PUBCHEM_IUPAC_OPENEYE_NAME>
2-[3-(2-carboxycyclopropyl)-1,3-di(cyclobutyl)-2-oxo-propyl]cyclopropanecarboxylic acid

> <PUBCHEM_IUPAC_CAS_NAME>
2-[3-(2-carboxycyclopropyl)-1,3-di(cyclobutyl)-2-oxopropyl]-1-cyclopropanecarboxylic acid

> <PUBCHEM_IUPAC_NAME_MARKUP>
2-[3-(2-carboxycyclopropyl)-1,3-di(cyclobutyl)-2-oxopropyl]cyclopropane-1-carboxylic acid

> <PUBCHEM_IUPAC_NAME>
2-[3-(2-carboxycyclopropyl)-1,3-di(cyclobutyl)-2-oxopropyl]cyclopropane-1-carboxylic acid

> <PUBCHEM_IUPAC_SYSTEMATIC_NAME>
2-[3-(2-carboxycyclopropyl)-1,3-di(cyclobutyl)-2-oxidanylidene-propyl]cyclopropane-1-carboxylic acid

> <PUBCHEM_IUPAC_TRADITIONAL_NAME>
2-[3-(2-carboxycyclopropyl)-1,3-di(cyclobutyl)-2-keto-propyl]cyclopropanecarboxylic acid

> <PUBCHEM_IUPAC_INCHI>
InChI=1S/C19H26O5/c20-17(15(9-3-1-4-9)11-7-13(11)18(21)22)16(10-5-2-6-10)12-8-14(12)19(23)24/h9-16H,1-8H2,(H,21,22)(H,23,24)

> <PUBCHEM_IUPAC_INCHIKEY>
CEVIXRRYXFAIOE-UHFFFAOYSA-N

> <PUBCHEM_XLOGP3_AA>
3

> <PUBCHEM_EXACT_MASS>
334.17802393

> <PUBCHEM_MOLECULAR_FORMULA>
C19H26O5

> <PUBCHEM_MOLECULAR_WEIGHT>
334.4

> <PUBCHEM_OPENEYE_CAN_SMILES>
C1CC(C1)C(C2CC2C(=O)O)C(=O)C(C3CCC3)C4CC4C(=O)O

> <PUBCHEM_OPENEYE_ISO_SMILES>
C1CC(C1)C(C2CC2C(=O)O)C(=O)C(C3CCC3)C4CC4C(=O)O

> <PUBCHEM_CACTVS_TPSA>
91.7

> <PUBCHEM_MONOISOTOPIC_WEIGHT>
334.17802393

> <PUBCHEM_TOTAL_CHARGE>
0

> <PUBCHEM_HEAVY_ATOM_COUNT>
24

> <PUBCHEM_ATOM_DEF_STEREO_COUNT>
0

> <PUBCHEM_ATOM_UDEF_STEREO_COUNT>
6

> <PUBCHEM_BOND_DEF_STEREO_COUNT>
0

> <PUBCHEM_BOND_UDEF_STEREO_COUNT>
0

> <PUBCHEM_ISOTOPIC_ATOM_COUNT>
0

> <PUBCHEM_COMPONENT_COUNT>
1

> <PUBCHEM_CACTVS_TAUTO_COUNT>
-1

> <PUBCHEM_COORDINATE_TYPE>
1
5
255

> <PUBCHEM_BONDANNOTATIONS>
10  23  3
11  24  3
6  14  3
7  15  3
8  16  3
9  16  3

$$$$
