 
  -OEChem-10192104012D

 33 34  0     1  0  0  0  0  0999 V2000
    5.5321   -1.1158    0.0000 O   0  0  0  0  0  0  0  0  0  0  0  0
    2.0000   -1.0950    0.0000 O   0  0  0  0  0  0  0  0  0  0  0  0
    2.8660   -2.5950    0.0000 O   0  0  0  0  0  0  0  0  0  0  0  0
    6.3961    0.4292    0.0000 O   0  0  0  0  0  0  0  0  0  0  0  0
    2.0000    1.9050    0.0000 O   0  0  0  0  0  0  0  0  0  0  0  0
    3.7320    1.9050    0.0000 O   0  0  0  0  0  0  0  0  0  0  0  0
    3.7320   -1.0950    0.0000 C   0  0  3  0  0  0  0  0  0  0  0  0
    3.7320   -0.0950    0.0000 C   0  0  3  0  0  0  0  0  0  0  0  0
    4.6260   -1.6297    0.0000 C   0  0  3  0  0  0  0  0  0  0  0  0
    4.6260    0.4397    0.0000 C   0  0  0  0  0  0  0  0  0  0  0  0
    2.8660   -1.5950    0.0000 C   0  0  3  0  0  0  0  0  0  0  0  0
    5.5321   -0.0742    0.0000 C   0  0  3  0  0  0  0  0  0  0  0  0
    2.8660    0.4050    0.0000 C   0  0  0  0  0  0  0  0  0  0  0  0
    4.6144   -2.6296    0.0000 C   0  0  0  0  0  0  0  0  0  0  0  0
    2.0000   -0.0950    0.0000 C   0  0  0  0  0  0  0  0  0  0  0  0
    2.8660    1.4050    0.0000 C   0  0  0  0  0  0  0  0  0  0  0  0
    2.0000    2.9050    0.0000 C   0  0  0  0  0  0  0  0  0  0  0  0
    4.2714   -0.7891    0.0000 H   0  0  0  0  0  0  0  0  0  0  0  0
    3.7273    0.5250    0.0000 H   0  0  0  0  0  0  0  0  0  0  0  0
    5.1599   -1.9448    0.0000 H   0  0  0  0  0  0  0  0  0  0  0  0
    5.0196    0.9187    0.0000 H   0  0  0  0  0  0  0  0  0  0  0  0
    4.2214    0.9094    0.0000 H   0  0  0  0  0  0  0  0  0  0  0  0
    3.4030   -1.9050    0.0000 H   0  0  0  0  0  0  0  0  0  0  0  0
    5.5285    0.5458    0.0000 H   0  0  0  0  0  0  0  0  0  0  0  0
    3.9945   -2.6224    0.0000 H   0  0  0  0  0  0  0  0  0  0  0  0
    4.6073   -3.2496    0.0000 H   0  0  0  0  0  0  0  0  0  0  0  0
    5.2344   -2.6368    0.0000 H   0  0  0  0  0  0  0  0  0  0  0  0
    1.4631    0.2150    0.0000 H   0  0  0  0  0  0  0  0  0  0  0  0
    2.3291   -2.9050    0.0000 H   0  0  0  0  0  0  0  0  0  0  0  0
    6.9343    0.1212    0.0000 H   0  0  0  0  0  0  0  0  0  0  0  0
    2.6200    2.9050    0.0000 H   0  0  0  0  0  0  0  0  0  0  0  0
    2.0000    3.5250    0.0000 H   0  0  0  0  0  0  0  0  0  0  0  0
    1.3800    2.9050    0.0000 H   0  0  0  0  0  0  0  0  0  0  0  0
  1  9  1  0  0  0  0
  1 12  1  0  0  0  0
  2 11  1  0  0  0  0
  2 15  1  0  0  0  0
  3 11  1  0  0  0  0
  3 29  1  0  0  0  0
  4 12  1  0  0  0  0
  4 30  1  0  0  0  0
  5 16  1  0  0  0  0
  5 17  1  0  0  0  0
  6 16  2  0  0  0  0
  7  8  1  0  0  0  0
  7  9  1  0  0  0  0
  7 11  1  0  0  0  0
  7 18  1  0  0  0  0
  8 10  1  0  0  0  0
  8 13  1  0  0  0  0
  8 19  1  0  0  0  0
  9 14  1  0  0  0  0
  9 20  1  0  0  0  0
 10 12  1  0  0  0  0
 10 21  1  0  0  0  0
 10 22  1  0  0  0  0
 11 23  1  0  0  0  0
 12 24  1  0  0  0  0
 13 15  2  0  0  0  0
 13 16  1  0  0  0  0
 14 25  1  0  0  0  0
 14 26  1  0  0  0  0
 14 27  1  0  0  0  0
 15 28  1  0  0  0  0
 17 31  1  0  0  0  0
 17 32  1  0  0  0  0
 17 33  1  0  0  0  0
M  END
> <PUBCHEM_COMPOUND_CID>
132489064

> <PUBCHEM_COMPOUND_CANONICALIZED>
1

> <PUBCHEM_CACTVS_COMPLEXITY>
339

> <PUBCHEM_CACTVS_HBOND_ACCEPTOR>
6

> <PUBCHEM_CACTVS_HBOND_DONOR>
2

> <PUBCHEM_CACTVS_ROTATABLE_BOND>
2

> <PUBCHEM_CACTVS_SUBSKEYS>
AAADceBwOAAAAAAAAAAAAAAAAAAAAAAAAAAkQAAAAAAAAACAAAAAGgAACAAADRSwgAMCCAAABgCIAgDSCAAACAAgIAAAAAEAAEgQFBIAIQACQAAFgAAEIIGIbAxOgAAAAAAAAAAAAAAAAAAAAAAAAAAAAA==

> <PUBCHEM_IUPAC_OPENEYE_NAME>
methyl 3,8-dihydroxy-1-methyl-1,3,4,4a,8,8a-hexahydropyrano[3,4-c]pyran-5-carboxylate

> <PUBCHEM_IUPAC_CAS_NAME>
3,8-dihydroxy-1-methyl-1,3,4,4a,8,8a-hexahydropyrano[3,4-c]pyran-5-carboxylic acid methyl ester

> <PUBCHEM_IUPAC_NAME_MARKUP>
methyl 3,8-dihydroxy-1-methyl-1,3,4,4<I>a</I>,8,8<I>a</I>-hexahydropyrano[3,4-c]pyran-5-carboxylate

> <PUBCHEM_IUPAC_NAME>
methyl 3,8-dihydroxy-1-methyl-1,3,4,4a,8,8a-hexahydropyrano[3,4-c]pyran-5-carboxylate

> <PUBCHEM_IUPAC_SYSTEMATIC_NAME>
methyl 1-methyl-3,8-bis(oxidanyl)-1,3,4,4a,8,8a-hexahydropyrano[3,4-c]pyran-5-carboxylate

> <PUBCHEM_IUPAC_TRADITIONAL_NAME>
3,8-dihydroxy-1-methyl-1,3,4,4a,8,8a-hexahydropyrano[3,4-c]pyran-5-carboxylic acid methyl ester

> <PUBCHEM_IUPAC_INCHI>
InChI=1S/C11H16O6/c1-5-9-6(3-8(12)17-5)7(10(13)15-2)4-16-11(9)14/h4-6,8-9,11-12,14H,3H2,1-2H3

> <PUBCHEM_IUPAC_INCHIKEY>
ZIMQGAMJDWXOIL-UHFFFAOYSA-N

> <PUBCHEM_XLOGP3_AA>
-0.2

> <PUBCHEM_EXACT_MASS>
244.09468823

> <PUBCHEM_MOLECULAR_FORMULA>
C11H16O6

> <PUBCHEM_MOLECULAR_WEIGHT>
244.24

> <PUBCHEM_OPENEYE_CAN_SMILES>
CC1C2C(CC(O1)O)C(=COC2O)C(=O)OC

> <PUBCHEM_OPENEYE_ISO_SMILES>
CC1C2C(CC(O1)O)C(=COC2O)C(=O)OC

> <PUBCHEM_CACTVS_TPSA>
85.2

> <PUBCHEM_MONOISOTOPIC_WEIGHT>
244.09468823

> <PUBCHEM_TOTAL_CHARGE>
0

> <PUBCHEM_HEAVY_ATOM_COUNT>
17

> <PUBCHEM_ATOM_DEF_STEREO_COUNT>
0

> <PUBCHEM_ATOM_UDEF_STEREO_COUNT>
5

> <PUBCHEM_BOND_DEF_STEREO_COUNT>
0

> <PUBCHEM_BOND_UDEF_STEREO_COUNT>
0

> <PUBCHEM_ISOTOPIC_ATOM_COUNT>
0

> <PUBCHEM_COMPONENT_COUNT>
1

> <PUBCHEM_CACTVS_TAUTO_COUNT>
-1

> <PUBCHEM_COORDINATE_TYPE>
1
5
255

> <PUBCHEM_BONDANNOTATIONS>
11  3  3
12  4  3
7  9  3
8  10  3
9  14  3

$$$$
