 
  -OEChem-10192104312D

 27 27  0     0  0  0  0  0  0999 V2000
    3.7320    0.5000    0.0000 O   0  0  0  0  0  0  0  0  0  0  0  0
    2.0000   -2.5000    0.0000 O   0  0  0  0  0  0  0  0  0  0  0  0
    5.4641    0.5000    0.0000 O   0  0  0  0  0  0  0  0  0  0  0  0
    6.3301    2.0000    0.0000 O   0  0  0  0  0  0  0  0  0  0  0  0
    3.7320   -0.5000    0.0000 C   0  0  0  0  0  0  0  0  0  0  0  0
    4.5981    2.0000    0.0000 C   0  0  0  0  0  0  0  0  0  0  0  0
    2.8660   -1.0000    0.0000 C   0  0  0  0  0  0  0  0  0  0  0  0
    2.8660   -2.0000    0.0000 C   0  0  0  0  0  0  0  0  0  0  0  0
    4.5981   -1.0000    0.0000 C   0  0  0  0  0  0  0  0  0  0  0  0
    3.7320   -2.5000    0.0000 C   0  0  0  0  0  0  0  0  0  0  0  0
    4.5981    1.0000    0.0000 C   0  0  0  0  0  0  0  0  0  0  0  0
    4.5981   -2.0000    0.0000 C   0  0  0  0  0  0  0  0  0  0  0  0
    5.4641    2.5000    0.0000 C   0  0  0  0  0  0  0  0  0  0  0  0
    5.4641    3.5000    0.0000 C   0  0  0  0  0  0  0  0  0  0  0  0
    2.0000   -3.5000    0.0000 C   0  0  0  0  0  0  0  0  0  0  0  0
    4.3860    2.5826    0.0000 H   0  0  0  0  0  0  0  0  0  0  0  0
    3.9875    1.8923    0.0000 H   0  0  0  0  0  0  0  0  0  0  0  0
    2.3291   -0.6900    0.0000 H   0  0  0  0  0  0  0  0  0  0  0  0
    5.1350   -0.6900    0.0000 H   0  0  0  0  0  0  0  0  0  0  0  0
    3.7320   -3.1200    0.0000 H   0  0  0  0  0  0  0  0  0  0  0  0
    5.1350   -2.3100    0.0000 H   0  0  0  0  0  0  0  0  0  0  0  0
    6.0841    3.5000    0.0000 H   0  0  0  0  0  0  0  0  0  0  0  0
    5.4641    4.1200    0.0000 H   0  0  0  0  0  0  0  0  0  0  0  0
    4.8441    3.5000    0.0000 H   0  0  0  0  0  0  0  0  0  0  0  0
    1.3800   -3.5000    0.0000 H   0  0  0  0  0  0  0  0  0  0  0  0
    2.0000   -4.1200    0.0000 H   0  0  0  0  0  0  0  0  0  0  0  0
    2.6200   -3.5000    0.0000 H   0  0  0  0  0  0  0  0  0  0  0  0
  1  5  1  0  0  0  0
  1 11  1  0  0  0  0
  2  8  1  0  0  0  0
  2 15  1  0  0  0  0
  3 11  2  0  0  0  0
  4 13  2  0  0  0  0
  5  7  1  0  0  0  0
  5  9  2  0  0  0  0
  6 11  1  0  0  0  0
  6 13  1  0  0  0  0
  6 16  1  0  0  0  0
  6 17  1  0  0  0  0
  7  8  2  0  0  0  0
  7 18  1  0  0  0  0
  8 10  1  0  0  0  0
  9 12  1  0  0  0  0
  9 19  1  0  0  0  0
 10 12  2  0  0  0  0
 10 20  1  0  0  0  0
 12 21  1  0  0  0  0
 13 14  1  0  0  0  0
 14 22  1  0  0  0  0
 14 23  1  0  0  0  0
 14 24  1  0  0  0  0
 15 25  1  0  0  0  0
 15 26  1  0  0  0  0
 15 27  1  0  0  0  0
M  END
> <PUBCHEM_COMPOUND_CID>
12234084

> <PUBCHEM_COMPOUND_CANONICALIZED>
1

> <PUBCHEM_CACTVS_COMPLEXITY>
237

> <PUBCHEM_CACTVS_HBOND_ACCEPTOR>
4

> <PUBCHEM_CACTVS_HBOND_DONOR>
0

> <PUBCHEM_CACTVS_ROTATABLE_BOND>
5

> <PUBCHEM_CACTVS_SUBSKEYS>
AAADccBwOAAAAAAAAAAAAAAAAAAAAAAAAAAwAAAAAAAAAAABAAAAGgAAAAAACASAkAIyDoAABACIAKDSCAACCAAgIAAIiAEGCIgMJzaMMRqCOiCl4BUIqAeAYAwAAAAACAAAAAAAAAAQAAAAAAAAAAAAAA==

> <PUBCHEM_IUPAC_OPENEYE_NAME>
(3-methoxyphenyl) 3-oxobutanoate

> <PUBCHEM_IUPAC_CAS_NAME>
3-oxobutanoic acid (3-methoxyphenyl) ester

> <PUBCHEM_IUPAC_NAME_MARKUP>
(3-methoxyphenyl) 3-oxobutanoate

> <PUBCHEM_IUPAC_NAME>
(3-methoxyphenyl) 3-oxobutanoate

> <PUBCHEM_IUPAC_SYSTEMATIC_NAME>
(3-methoxyphenyl) 3-oxidanylidenebutanoate

> <PUBCHEM_IUPAC_TRADITIONAL_NAME>
3-ketobutyric acid (3-methoxyphenyl) ester

> <PUBCHEM_IUPAC_INCHI>
InChI=1S/C11H12O4/c1-8(12)6-11(13)15-10-5-3-4-9(7-10)14-2/h3-5,7H,6H2,1-2H3

> <PUBCHEM_IUPAC_INCHIKEY>
GGNMZRZVYPYOBU-UHFFFAOYSA-N

> <PUBCHEM_XLOGP3>
1.5

> <PUBCHEM_EXACT_MASS>
208.07355886

> <PUBCHEM_MOLECULAR_FORMULA>
C11H12O4

> <PUBCHEM_MOLECULAR_WEIGHT>
208.21

> <PUBCHEM_OPENEYE_CAN_SMILES>
CC(=O)CC(=O)OC1=CC=CC(=C1)OC

> <PUBCHEM_OPENEYE_ISO_SMILES>
CC(=O)CC(=O)OC1=CC=CC(=C1)OC

> <PUBCHEM_CACTVS_TPSA>
52.6

> <PUBCHEM_MONOISOTOPIC_WEIGHT>
208.07355886

> <PUBCHEM_TOTAL_CHARGE>
0

> <PUBCHEM_HEAVY_ATOM_COUNT>
15

> <PUBCHEM_ATOM_DEF_STEREO_COUNT>
0

> <PUBCHEM_ATOM_UDEF_STEREO_COUNT>
0

> <PUBCHEM_BOND_DEF_STEREO_COUNT>
0

> <PUBCHEM_BOND_UDEF_STEREO_COUNT>
0

> <PUBCHEM_ISOTOPIC_ATOM_COUNT>
0

> <PUBCHEM_COMPONENT_COUNT>
1

> <PUBCHEM_CACTVS_TAUTO_COUNT>
-1

> <PUBCHEM_COORDINATE_TYPE>
1
5
255

> <PUBCHEM_BONDANNOTATIONS>
10  12  8
5  7  8
5  9  8
7  8  8
8  10  8
9  12  8

$$$$
