 
  -OEChem-10192104152D

 32 33  0     1  0  0  0  0  0999 V2000
    5.4920    0.1980    0.0000 O   0  0  0  0  0  0  0  0  0  0  0  0
    3.7320    2.2327    0.0000 O   0  0  0  0  0  0  0  0  0  0  0  0
    2.8660    0.7327    0.0000 O   0  0  0  0  0  0  0  0  0  0  0  0
    6.3981    1.7535    0.0000 O   0  0  0  0  0  0  0  0  0  0  0  0
    2.8660   -1.2673    0.0000 O   0  0  0  0  0  0  0  0  0  0  0  0
    4.5981   -1.2673    0.0000 O   0  0  0  0  0  0  0  0  0  0  0  0
    4.5981    0.7327    0.0000 C   0  0  3  0  0  0  0  0  0  0  0  0
    4.5981    1.7327    0.0000 C   0  0  3  0  0  0  0  0  0  0  0  0
    3.7320    0.2327    0.0000 C   0  0  3  0  0  0  0  0  0  0  0  0
    5.4920    2.2673    0.0000 C   0  0  0  0  0  0  0  0  0  0  0  0
    2.8660    1.7327    0.0000 C   0  0  3  0  0  0  0  0  0  0  0  0
    6.3981    0.7119    0.0000 C   0  0  3  0  0  0  0  0  0  0  0  0
    3.7320   -0.7673    0.0000 C   0  0  0  0  0  0  0  0  0  0  0  0
    2.0000    2.2327    0.0000 C   0  0  0  0  0  0  0  0  0  0  0  0
    7.2622    0.2085    0.0000 C   0  0  0  0  0  0  0  0  0  0  0  0
    2.8660   -2.2673    0.0000 C   0  0  0  0  0  0  0  0  0  0  0  0
    4.5933    0.1127    0.0000 H   0  0  0  0  0  0  0  0  0  0  0  0
    4.5933    2.3526    0.0000 H   0  0  0  0  0  0  0  0  0  0  0  0
    3.1951   -0.0773    0.0000 H   0  0  0  0  0  0  0  0  0  0  0  0
    5.8856    2.7464    0.0000 H   0  0  0  0  0  0  0  0  0  0  0  0
    5.0874    2.7371    0.0000 H   0  0  0  0  0  0  0  0  0  0  0  0
    2.8660    2.3527    0.0000 H   0  0  0  0  0  0  0  0  0  0  0  0
    6.9356    1.0208    0.0000 H   0  0  0  0  0  0  0  0  0  0  0  0
    2.3100    2.7696    0.0000 H   0  0  0  0  0  0  0  0  0  0  0  0
    1.4631    2.5427    0.0000 H   0  0  0  0  0  0  0  0  0  0  0  0
    1.6900    1.6957    0.0000 H   0  0  0  0  0  0  0  0  0  0  0  0
    6.9501   -0.3272    0.0000 H   0  0  0  0  0  0  0  0  0  0  0  0
    7.7979   -0.1035    0.0000 H   0  0  0  0  0  0  0  0  0  0  0  0
    7.5742    0.7443    0.0000 H   0  0  0  0  0  0  0  0  0  0  0  0
    2.2460   -2.2673    0.0000 H   0  0  0  0  0  0  0  0  0  0  0  0
    2.8660   -2.8873    0.0000 H   0  0  0  0  0  0  0  0  0  0  0  0
    3.4860   -2.2673    0.0000 H   0  0  0  0  0  0  0  0  0  0  0  0
  1  7  1  0  0  0  0
  1 12  1  0  0  0  0
  2  8  1  0  0  0  0
  2 11  1  0  0  0  0
  3  9  1  0  0  0  0
  3 11  1  0  0  0  0
  4 10  1  0  0  0  0
  4 12  1  0  0  0  0
  5 13  1  0  0  0  0
  5 16  1  0  0  0  0
  6 13  2  0  0  0  0
  7  8  1  0  0  0  0
  7  9  1  0  0  0  0
  7 17  1  0  0  0  0
  8 10  1  0  0  0  0
  8 18  1  0  0  0  0
  9 13  1  0  0  0  0
  9 19  1  0  0  0  0
 10 20  1  0  0  0  0
 10 21  1  0  0  0  0
 11 14  1  0  0  0  0
 11 22  1  0  0  0  0
 12 15  1  0  0  0  0
 12 23  1  0  0  0  0
 14 24  1  0  0  0  0
 14 25  1  0  0  0  0
 14 26  1  0  0  0  0
 15 27  1  0  0  0  0
 15 28  1  0  0  0  0
 15 29  1  0  0  0  0
 16 30  1  0  0  0  0
 16 31  1  0  0  0  0
 16 32  1  0  0  0  0
M  END
> <PUBCHEM_COMPOUND_CID>
536858

> <PUBCHEM_COMPOUND_CANONICALIZED>
1

> <PUBCHEM_CACTVS_COMPLEXITY>
268

> <PUBCHEM_CACTVS_HBOND_ACCEPTOR>
6

> <PUBCHEM_CACTVS_HBOND_DONOR>
0

> <PUBCHEM_CACTVS_ROTATABLE_BOND>
2

> <PUBCHEM_CACTVS_SUBSKEYS>
AAADceBwOAAAAAAAAAAAAAAAAAAAAAAAAAAkSAAAAAAAAACQAAAAGgAAAAAACBSwgAMCCAAABAAIAACQCAIAAAAAAAAAAAFAAAARABYAAAQiAAAFIAAGAADKJAgAAAAAAAAAAAAAAAAAAAAAAAAAAAAAAA==

> <PUBCHEM_IUPAC_OPENEYE_NAME>
methyl 2,6-dimethyl-4,4a,8,8a-tetrahydro-[1,3]dioxino[5,4-d][1,3]dioxine-4-carboxylate

> <PUBCHEM_IUPAC_CAS_NAME>
2,6-dimethyl-4,4a,8,8a-tetrahydro-[1,3]dioxino[5,4-d][1,3]dioxin-4-carboxylic acid methyl ester

> <PUBCHEM_IUPAC_NAME_MARKUP>
methyl 2,6-dimethyl-4,4<I>a</I>,8,8<I>a</I>-tetrahydro-[1,3]dioxino[5,4-d][1,3]dioxine-4-carboxylate

> <PUBCHEM_IUPAC_NAME>
methyl 2,6-dimethyl-4,4a,8,8a-tetrahydro-[1,3]dioxino[5,4-d][1,3]dioxine-4-carboxylate

> <PUBCHEM_IUPAC_SYSTEMATIC_NAME>
methyl 2,6-dimethyl-4,4a,8,8a-tetrahydro-[1,3]dioxino[5,4-d][1,3]dioxine-4-carboxylate

> <PUBCHEM_IUPAC_TRADITIONAL_NAME>
2,6-dimethyl-4,4a,8,8a-tetrahydro-[1,3]dioxino[5,4-d][1,3]dioxin-4-carboxylic acid methyl ester

> <PUBCHEM_IUPAC_INCHI>
InChI=1S/C10H16O6/c1-5-13-4-7-8(15-5)9(10(11)12-3)16-6(2)14-7/h5-9H,4H2,1-3H3

> <PUBCHEM_IUPAC_INCHIKEY>
VCNDSEBAIZTAPL-UHFFFAOYSA-N

> <PUBCHEM_XLOGP3_AA>
0.3

> <PUBCHEM_EXACT_MASS>
232.09468823

> <PUBCHEM_MOLECULAR_FORMULA>
C10H16O6

> <PUBCHEM_MOLECULAR_WEIGHT>
232.23

> <PUBCHEM_OPENEYE_CAN_SMILES>
CC1OCC2C(O1)C(OC(O2)C)C(=O)OC

> <PUBCHEM_OPENEYE_ISO_SMILES>
CC1OCC2C(O1)C(OC(O2)C)C(=O)OC

> <PUBCHEM_CACTVS_TPSA>
63.2

> <PUBCHEM_MONOISOTOPIC_WEIGHT>
232.09468823

> <PUBCHEM_TOTAL_CHARGE>
0

> <PUBCHEM_HEAVY_ATOM_COUNT>
16

> <PUBCHEM_ATOM_DEF_STEREO_COUNT>
0

> <PUBCHEM_ATOM_UDEF_STEREO_COUNT>
5

> <PUBCHEM_BOND_DEF_STEREO_COUNT>
0

> <PUBCHEM_BOND_UDEF_STEREO_COUNT>
0

> <PUBCHEM_ISOTOPIC_ATOM_COUNT>
0

> <PUBCHEM_COMPONENT_COUNT>
1

> <PUBCHEM_CACTVS_TAUTO_COUNT>
-1

> <PUBCHEM_COORDINATE_TYPE>
1
5
255

> <PUBCHEM_BONDANNOTATIONS>
7  1  3
11  14  3
12  15  3
8  10  3
9  13  3

$$$$
