 
  -OEChem-10192104272D

 48 50  0     1  0  0  0  0  0999 V2000
   14.7350   -0.3354    0.0000 O   0  0  0  0  0  0  0  0  0  0  0  0
   13.8632   -1.8321    0.0000 O   0  0  0  0  0  0  0  0  0  0  0  0
   11.2748    0.6779    0.0000 O   0  0  0  0  0  0  0  0  0  0  0  0
   14.7465    2.6646    0.0000 O   0  0  0  0  0  0  0  0  0  0  0  0
   13.0145    2.6712    0.0000 O   0  0  0  0  0  0  0  0  0  0  0  0
    4.2690   -3.2846    0.0000 O   0  0  0  0  0  0  0  0  0  0  0  0
   12.1350   -0.8254    0.0000 N   0  0  0  0  0  0  0  0  0  0  0  0
    7.7991   -2.3087    0.0000 N   0  0  0  0  0  0  0  0  0  0  0  0
    6.0290   -2.3192    0.0000 N   0  0  0  0  0  0  0  0  0  0  0  0
    6.0290   -0.2499    0.0000 N   0  0  0  0  0  0  0  0  0  0  0  0
    3.4030   -1.7846    0.0000 N   0  0  0  0  0  0  0  0  0  0  0  0
    4.2690   -0.2846    0.0000 N   0  0  0  0  0  0  0  0  0  0  0  0
    2.5369   -0.2846    0.0000 N   0  0  0  0  0  0  0  0  0  0  0  0
   13.0029   -0.3287    0.0000 C   0  0  3  0  0  0  0  0  0  0  0  0
   13.0068    0.6712    0.0000 C   0  0  0  0  0  0  0  0  0  0  0  0
   13.8747    1.1679    0.0000 C   0  0  0  0  0  0  0  0  0  0  0  0
   13.8670   -0.8321    0.0000 C   0  0  0  0  0  0  0  0  0  0  0  0
   11.2709   -0.3221    0.0000 C   0  0  0  0  0  0  0  0  0  0  0  0
   10.4030   -0.8187    0.0000 C   0  0  0  0  0  0  0  0  0  0  0  0
    8.6671   -1.8120    0.0000 C   0  0  0  0  0  0  0  0  0  0  0  0
   10.3991   -1.8187    0.0000 C   0  0  0  0  0  0  0  0  0  0  0  0
    9.5389   -0.3154    0.0000 C   0  0  0  0  0  0  0  0  0  0  0  0
   13.8786    2.1679    0.0000 C   0  0  0  0  0  0  0  0  0  0  0  0
    9.5312   -2.3154    0.0000 C   0  0  0  0  0  0  0  0  0  0  0  0
    8.6709   -0.8121    0.0000 C   0  0  0  0  0  0  0  0  0  0  0  0
    6.9350   -1.8054    0.0000 C   0  0  0  0  0  0  0  0  0  0  0  0
    5.1350   -1.7846    0.0000 C   0  0  0  0  0  0  0  0  0  0  0  0
    5.1350   -0.7846    0.0000 C   0  0  0  0  0  0  0  0  0  0  0  0
    6.9350   -0.7637    0.0000 C   0  0  0  0  0  0  0  0  0  0  0  0
    4.2690   -2.2846    0.0000 C   0  0  0  0  0  0  0  0  0  0  0  0
    3.4030   -0.7846    0.0000 C   0  0  0  0  0  0  0  0  0  0  0  0
   13.0005   -0.9487    0.0000 H   0  0  0  0  0  0  0  0  0  0  0  0
   12.7970    1.2547    0.0000 H   0  0  0  0  0  0  0  0  0  0  0  0
   12.3958    0.5659    0.0000 H   0  0  0  0  0  0  0  0  0  0  0  0
   14.0845    0.5845    0.0000 H   0  0  0  0  0  0  0  0  0  0  0  0
   14.4857    1.2732    0.0000 H   0  0  0  0  0  0  0  0  0  0  0  0
   12.1326   -1.4454    0.0000 H   0  0  0  0  0  0  0  0  0  0  0  0
   10.9348   -2.1308    0.0000 H   0  0  0  0  0  0  0  0  0  0  0  0
    9.5412    0.3046    0.0000 H   0  0  0  0  0  0  0  0  0  0  0  0
    9.5288   -2.9354    0.0000 H   0  0  0  0  0  0  0  0  0  0  0  0
    8.1352   -0.5000    0.0000 H   0  0  0  0  0  0  0  0  0  0  0  0
    7.7967   -2.9287    0.0000 H   0  0  0  0  0  0  0  0  0  0  0  0
   15.2707   -0.6475    0.0000 H   0  0  0  0  0  0  0  0  0  0  0  0
    7.4708   -0.4517    0.0000 H   0  0  0  0  0  0  0  0  0  0  0  0
    2.8660   -2.0946    0.0000 H   0  0  0  0  0  0  0  0  0  0  0  0
   14.7489    3.2846    0.0000 H   0  0  0  0  0  0  0  0  0  0  0  0
    2.5369    0.3354    0.0000 H   0  0  0  0  0  0  0  0  0  0  0  0
    2.0000   -0.5946    0.0000 H   0  0  0  0  0  0  0  0  0  0  0  0
  1 17  1  0  0  0  0
  1 43  1  0  0  0  0
  2 17  2  0  0  0  0
  3 18  2  0  0  0  0
  4 23  1  0  0  0  0
  4 46  1  0  0  0  0
  5 23  2  0  0  0  0
  6 30  2  0  0  0  0
  7 14  1  0  0  0  0
  7 18  1  0  0  0  0
  7 37  1  0  0  0  0
  8 20  1  0  0  0  0
  8 26  1  0  0  0  0
  8 42  1  0  0  0  0
  9 26  1  0  0  0  0
  9 27  2  0  0  0  0
 10 28  2  0  0  0  0
 10 29  1  0  0  0  0
 11 30  1  0  0  0  0
 11 31  1  0  0  0  0
 11 45  1  0  0  0  0
 12 28  1  0  0  0  0
 12 31  2  0  0  0  0
 13 31  1  0  0  0  0
 13 47  1  0  0  0  0
 13 48  1  0  0  0  0
 14 15  1  0  0  0  0
 14 17  1  0  0  0  0
 14 32  1  0  0  0  0
 15 16  1  0  0  0  0
 15 33  1  0  0  0  0
 15 34  1  0  0  0  0
 16 23  1  0  0  0  0
 16 35  1  0  0  0  0
 16 36  1  0  0  0  0
 18 19  1  0  0  0  0
 19 21  2  0  0  0  0
 19 22  1  0  0  0  0
 20 24  2  0  0  0  0
 20 25  1  0  0  0  0
 21 24  1  0  0  0  0
 21 38  1  0  0  0  0
 22 25  2  0  0  0  0
 22 39  1  0  0  0  0
 24 40  1  0  0  0  0
 25 41  1  0  0  0  0
 26 29  2  0  0  0  0
 27 28  1  0  0  0  0
 27 30  1  0  0  0  0
 29 44  1  0  0  0  0
M  END
> <PUBCHEM_COMPOUND_CID>
135627043

> <PUBCHEM_COMPOUND_CANONICALIZED>
1

> <PUBCHEM_CACTVS_COMPLEXITY>
752

> <PUBCHEM_CACTVS_HBOND_ACCEPTOR>
10

> <PUBCHEM_CACTVS_HBOND_DONOR>
6

> <PUBCHEM_CACTVS_ROTATABLE_BOND>
8

> <PUBCHEM_CACTVS_SUBSKEYS>
AAADceB7uAAAAAAAAAAAAAAAAAAAAAAAAAA8QIAAAAAAAACBwAAAHgAQCAAADCjBngQ9+JLIEgCoAzf3fACCgC03EiAJ2IG4dMiKYHrA3bGUYYhslwLYyee8rwCeCAAAAAAAAAAQAAAAAAAAAAAAAAAAAA==

> <PUBCHEM_IUPAC_OPENEYE_NAME>
2-[[4-[(2-amino-4-oxo-3H-pteridin-6-yl)amino]benzoyl]amino]pentanedioic acid

> <PUBCHEM_IUPAC_CAS_NAME>
2-[[[4-[(2-amino-4-oxo-3H-pteridin-6-yl)amino]phenyl]-oxomethyl]amino]pentanedioic acid

> <PUBCHEM_IUPAC_NAME_MARKUP>
2-[[4-[(2-amino-4-oxo-3<I>H</I>-pteridin-6-yl)amino]benzoyl]amino]pentanedioic acid

> <PUBCHEM_IUPAC_NAME>
2-[[4-[(2-amino-4-oxo-3H-pteridin-6-yl)amino]benzoyl]amino]pentanedioic acid

> <PUBCHEM_IUPAC_SYSTEMATIC_NAME>
2-[[4-[(2-azanyl-4-oxidanylidene-3H-pteridin-6-yl)amino]phenyl]carbonylamino]pentanedioic acid

> <PUBCHEM_IUPAC_TRADITIONAL_NAME>
2-[[4-[(2-amino-4-keto-3H-pteridin-6-yl)amino]benzoyl]amino]glutaric acid

> <PUBCHEM_IUPAC_INCHI>
InChI=1S/C18H17N7O6/c19-18-24-14-13(16(29)25-18)23-11(7-20-14)21-9-3-1-8(2-4-9)15(28)22-10(17(30)31)5-6-12(26)27/h1-4,7,10H,5-6H2,(H,21,23)(H,22,28)(H,26,27)(H,30,31)(H3,19,20,24,25,29)

> <PUBCHEM_IUPAC_INCHIKEY>
ZSSDUHFRXKPJJL-UHFFFAOYSA-N

> <PUBCHEM_XLOGP3_AA>
-0.7

> <PUBCHEM_EXACT_MASS>
427.12403129

> <PUBCHEM_MOLECULAR_FORMULA>
C18H17N7O6

> <PUBCHEM_MOLECULAR_WEIGHT>
427.4

> <PUBCHEM_OPENEYE_CAN_SMILES>
C1=CC(=CC=C1C(=O)NC(CCC(=O)O)C(=O)O)NC2=CN=C3C(=N2)C(=O)NC(=N3)N

> <PUBCHEM_OPENEYE_ISO_SMILES>
C1=CC(=CC=C1C(=O)NC(CCC(=O)O)C(=O)O)NC2=CN=C3C(=N2)C(=O)NC(=N3)N

> <PUBCHEM_CACTVS_TPSA>
209

> <PUBCHEM_MONOISOTOPIC_WEIGHT>
427.12403129

> <PUBCHEM_TOTAL_CHARGE>
0

> <PUBCHEM_HEAVY_ATOM_COUNT>
31

> <PUBCHEM_ATOM_DEF_STEREO_COUNT>
0

> <PUBCHEM_ATOM_UDEF_STEREO_COUNT>
1

> <PUBCHEM_BOND_DEF_STEREO_COUNT>
0

> <PUBCHEM_BOND_UDEF_STEREO_COUNT>
0

> <PUBCHEM_ISOTOPIC_ATOM_COUNT>
0

> <PUBCHEM_COMPONENT_COUNT>
1

> <PUBCHEM_CACTVS_TAUTO_COUNT>
-1

> <PUBCHEM_COORDINATE_TYPE>
1
5
255

> <PUBCHEM_BONDANNOTATIONS>
10  28  8
10  29  8
11  30  8
11  31  8
12  28  8
12  31  8
14  15  3
19  21  8
19  22  8
20  24  8
20  25  8
21  24  8
22  25  8
26  29  8
27  28  8
27  30  8
9  26  8
9  27  8

$$$$
