 
  -OEChem-10192104172D

 33 32  0     1  0  0  0  0  0999 V2000
    6.8671    1.8450    0.0000 O   0  0  0  0  0  0  0  0  0  0  0  0
    5.1350    1.8450    0.0000 O   0  0  0  0  0  0  0  0  0  0  0  0
    7.7331   -0.6550    0.0000 O   0  0  0  0  0  0  0  0  0  0  0  0
    9.4651    0.3450    0.0000 O   0  0  0  0  0  0  0  0  0  0  0  0
    2.5369    0.3450    0.0000 O   0  0  0  0  0  0  0  0  0  0  0  0
    8.5991    1.8450    0.0000 O   0  0  0  0  0  0  0  0  0  0  0  0
    4.2690   -0.6550    0.0000 O   0  0  0  0  0  0  0  0  0  0  0  0
    3.4030    1.8450    0.0000 O   0  0  0  0  0  0  0  0  0  0  0  0
    6.0010   -0.6550    0.0000 N   0  0  0  0  0  0  0  0  0  0  0  0
    6.0010    0.3450    0.0000 C   0  0  3  0  0  0  0  0  0  0  0  0
    6.8671    0.8450    0.0000 C   0  0  3  0  0  0  0  0  0  0  0  0
    5.1350    0.8450    0.0000 C   0  0  3  0  0  0  0  0  0  0  0  0
    7.7331    0.3450    0.0000 C   0  0  3  0  0  0  0  0  0  0  0  0
    4.2690    0.3450    0.0000 C   0  0  0  0  0  0  0  0  0  0  0  0
    8.5991    0.8450    0.0000 C   0  0  0  0  0  0  0  0  0  0  0  0
    5.1350   -1.1550    0.0000 C   0  0  0  0  0  0  0  0  0  0  0  0
    3.4030    0.8450    0.0000 C   0  0  0  0  0  0  0  0  0  0  0  0
    5.1350   -2.1550    0.0000 C   0  0  0  0  0  0  0  0  0  0  0  0
    6.5380    0.0350    0.0000 H   0  0  0  0  0  0  0  0  0  0  0  0
    6.3301    1.1550    0.0000 H   0  0  0  0  0  0  0  0  0  0  0  0
    5.6720    1.1550    0.0000 H   0  0  0  0  0  0  0  0  0  0  0  0
    8.2700    0.0350    0.0000 H   0  0  0  0  0  0  0  0  0  0  0  0
    3.8705   -0.1299    0.0000 H   0  0  0  0  0  0  0  0  0  0  0  0
    4.6675   -0.1299    0.0000 H   0  0  0  0  0  0  0  0  0  0  0  0
    6.5380   -0.9650    0.0000 H   0  0  0  0  0  0  0  0  0  0  0  0
    7.4040    2.1550    0.0000 H   0  0  0  0  0  0  0  0  0  0  0  0
    4.5981    2.1550    0.0000 H   0  0  0  0  0  0  0  0  0  0  0  0
    8.2700   -0.9650    0.0000 H   0  0  0  0  0  0  0  0  0  0  0  0
    4.5150   -2.1550    0.0000 H   0  0  0  0  0  0  0  0  0  0  0  0
    5.1350   -2.7750    0.0000 H   0  0  0  0  0  0  0  0  0  0  0  0
    5.7550   -2.1550    0.0000 H   0  0  0  0  0  0  0  0  0  0  0  0
   10.0021    0.6550    0.0000 H   0  0  0  0  0  0  0  0  0  0  0  0
    2.0000    0.6550    0.0000 H   0  0  0  0  0  0  0  0  0  0  0  0
  1 11  1  0  0  0  0
  1 26  1  0  0  0  0
  2 12  1  0  0  0  0
  2 27  1  0  0  0  0
  3 13  1  0  0  0  0
  3 28  1  0  0  0  0
  4 15  1  0  0  0  0
  4 32  1  0  0  0  0
  5 17  1  0  0  0  0
  5 33  1  0  0  0  0
  6 15  2  0  0  0  0
  7 16  2  0  0  0  0
  8 17  2  0  0  0  0
  9 10  1  0  0  0  0
  9 16  1  0  0  0  0
  9 25  1  0  0  0  0
 10 11  1  0  0  0  0
 10 12  1  0  0  0  0
 10 19  1  0  0  0  0
 11 13  1  0  0  0  0
 11 20  1  0  0  0  0
 12 14  1  0  0  0  0
 12 21  1  0  0  0  0
 13 15  1  0  0  0  0
 13 22  1  0  0  0  0
 14 17  1  0  0  0  0
 14 23  1  0  0  0  0
 14 24  1  0  0  0  0
 16 18  1  0  0  0  0
 18 29  1  0  0  0  0
 18 30  1  0  0  0  0
 18 31  1  0  0  0  0
M  END
> <PUBCHEM_COMPOUND_CID>
102366227

> <PUBCHEM_COMPOUND_CANONICALIZED>
1

> <PUBCHEM_CACTVS_COMPLEXITY>
331

> <PUBCHEM_CACTVS_HBOND_ACCEPTOR>
8

> <PUBCHEM_CACTVS_HBOND_DONOR>
6

> <PUBCHEM_CACTVS_ROTATABLE_BOND>
7

> <PUBCHEM_CACTVS_SUBSKEYS>
AAADccByPAAAAAAAAAAAAAAAAAAAAAAAAAAAAAAAAAAAAAAAAAAAHgAQCAAACDzhgAYCCALAAgAIAAGQGAIAAAAAAAAAAIFIAAADEBYAgAAEQAAHNgCRAAHs7CTAAAAAAAAAAAAAAAAAAAAAAAAAAAAAAA==

> <PUBCHEM_IUPAC_OPENEYE_NAME>
4-acetamido-2,3,5-trihydroxy-heptanedioic acid

> <PUBCHEM_IUPAC_CAS_NAME>
4-acetamido-2,3,5-trihydroxyheptanedioic acid

> <PUBCHEM_IUPAC_NAME_MARKUP>
4-acetamido-2,3,5-trihydroxyheptanedioic acid

> <PUBCHEM_IUPAC_NAME>
4-acetamido-2,3,5-trihydroxyheptanedioic acid

> <PUBCHEM_IUPAC_SYSTEMATIC_NAME>
4-acetamido-2,3,5-tris(oxidanyl)heptanedioic acid

> <PUBCHEM_IUPAC_TRADITIONAL_NAME>
4-acetamido-2,3,5-trihydroxy-pimelic acid

> <PUBCHEM_IUPAC_INCHI>
InChI=1S/C9H15NO8/c1-3(11)10-6(4(12)2-5(13)14)7(15)8(16)9(17)18/h4,6-8,12,15-16H,2H2,1H3,(H,10,11)(H,13,14)(H,17,18)

> <PUBCHEM_IUPAC_INCHIKEY>
BCHPKZDFTLPMHM-UHFFFAOYSA-N

> <PUBCHEM_XLOGP3_AA>
-3.2

> <PUBCHEM_EXACT_MASS>
265.07976644

> <PUBCHEM_MOLECULAR_FORMULA>
C9H15NO8

> <PUBCHEM_MOLECULAR_WEIGHT>
265.22

> <PUBCHEM_OPENEYE_CAN_SMILES>
CC(=O)NC(C(CC(=O)O)O)C(C(C(=O)O)O)O

> <PUBCHEM_OPENEYE_ISO_SMILES>
CC(=O)NC(C(CC(=O)O)O)C(C(C(=O)O)O)O

> <PUBCHEM_CACTVS_TPSA>
164

> <PUBCHEM_MONOISOTOPIC_WEIGHT>
265.07976644

> <PUBCHEM_TOTAL_CHARGE>
0

> <PUBCHEM_HEAVY_ATOM_COUNT>
18

> <PUBCHEM_ATOM_DEF_STEREO_COUNT>
0

> <PUBCHEM_ATOM_UDEF_STEREO_COUNT>
4

> <PUBCHEM_BOND_DEF_STEREO_COUNT>
0

> <PUBCHEM_BOND_UDEF_STEREO_COUNT>
0

> <PUBCHEM_ISOTOPIC_ATOM_COUNT>
0

> <PUBCHEM_COMPONENT_COUNT>
1

> <PUBCHEM_CACTVS_TAUTO_COUNT>
-1

> <PUBCHEM_COORDINATE_TYPE>
1
5
255

> <PUBCHEM_BONDANNOTATIONS>
11  1  3
12  2  3
13  3  3
10  9  3

$$$$
