 
  -OEChem-10192103422D

 94 96  0     1  0  0  0  0  0999 V2000
    7.1962   -1.2500    0.0000 O   0  0  0  0  0  0  0  0  0  0  0  0
    5.4641   -1.2500    0.0000 O   0  0  0  0  0  0  0  0  0  0  0  0
    6.3301    1.2500    0.0000 O   0  0  0  0  0  0  0  0  0  0  0  0
    8.9282   -0.2500    0.0000 O   0  0  0  0  0  0  0  0  0  0  0  0
    7.1962   -3.2500    0.0000 O   0  0  0  0  0  0  0  0  0  0  0  0
    5.4641   -4.2500    0.0000 O   0  0  0  0  0  0  0  0  0  0  0  0
    3.7320   -3.2500    0.0000 O   0  0  0  0  0  0  0  0  0  0  0  0
    8.9282    1.7500    0.0000 O   0  0  0  0  0  0  0  0  0  0  0  0
    7.1962    2.7500    0.0000 O   0  0  0  0  0  0  0  0  0  0  0  0
    4.5981    0.2500    0.0000 O   0  0  0  0  0  0  0  0  0  0  0  0
    3.7320   -0.2500    0.0000 O   0  0  0  0  0  0  0  0  0  0  0  0
    9.7942    1.2500    0.0000 O   0  0  0  0  0  0  0  0  0  0  0  0
    6.3301   -4.7500    0.0000 O   0  0  0  0  0  0  0  0  0  0  0  0
    3.7320   -4.2500    0.0000 O   0  0  0  0  0  0  0  0  0  0  0  0
    2.8660   -1.7500    0.0000 O   0  0  0  0  0  0  0  0  0  0  0  0
    8.0622    3.2500    0.0000 O   0  0  0  0  0  0  0  0  0  0  0  0
    5.4641    1.7500    0.0000 O   0  0  0  0  0  0  0  0  0  0  0  0
    2.0000   -0.2500    0.0000 O   0  0  0  0  0  0  0  0  0  0  0  0
    7.1962   -0.2500    0.0000 C   0  0  3  0  0  0  0  0  0  0  0  0
    8.0622    0.2500    0.0000 C   0  0  3  0  0  0  0  0  0  0  0  0
    6.3301   -1.7500    0.0000 C   0  0  3  0  0  0  0  0  0  0  0  0
    6.3301   -2.7500    0.0000 C   0  0  3  0  0  0  0  0  0  0  0  0
    6.3301    0.2500    0.0000 C   0  0  3  0  0  0  0  0  0  0  0  0
    5.4641   -3.2500    0.0000 C   0  0  3  0  0  0  0  0  0  0  0  0
    4.5981   -2.7500    0.0000 C   0  0  3  0  0  0  0  0  0  0  0  0
    8.0622    1.2500    0.0000 C   0  0  3  0  0  0  0  0  0  0  0  0
    4.5981   -1.7500    0.0000 C   0  0  3  0  0  0  0  0  0  0  0  0
    7.1962    1.7500    0.0000 C   0  0  3  0  0  0  0  0  0  0  0  0
    5.4641   -0.2500    0.0000 C   0  0  0  0  0  0  0  0  0  0  0  0
    3.7320   -1.2500    0.0000 C   0  0  0  0  0  0  0  0  0  0  0  0
    9.7942    0.2500    0.0000 C   0  0  0  0  0  0  0  0  0  0  0  0
    7.1962   -4.2500    0.0000 C   0  0  0  0  0  0  0  0  0  0  0  0
    4.5981   -4.7500    0.0000 C   0  0  0  0  0  0  0  0  0  0  0  0
    2.8660   -2.7500    0.0000 C   0  0  0  0  0  0  0  0  0  0  0  0
    8.9282    2.7500    0.0000 C   0  0  0  0  0  0  0  0  0  0  0  0
    6.3301    3.2500    0.0000 C   0  0  0  0  0  0  0  0  0  0  0  0
   10.6603   -0.2500    0.0000 C   0  0  0  0  0  0  0  0  0  0  0  0
    4.5981    1.2500    0.0000 C   0  0  0  0  0  0  0  0  0  0  0  0
    8.0622   -4.7500    0.0000 C   0  0  0  0  0  0  0  0  0  0  0  0
    4.5981   -5.7500    0.0000 C   0  0  0  0  0  0  0  0  0  0  0  0
    2.0000   -3.2500    0.0000 C   0  0  0  0  0  0  0  0  0  0  0  0
    2.8660    0.2500    0.0000 C   0  0  0  0  0  0  0  0  0  0  0  0
    9.7942    3.2500    0.0000 C   0  0  0  0  0  0  0  0  0  0  0  0
    5.4641    2.7500    0.0000 C   0  0  0  0  0  0  0  0  0  0  0  0
    6.3301    4.2500    0.0000 C   0  0  0  0  0  0  0  0  0  0  0  0
    3.7320    1.7500    0.0000 C   0  0  0  0  0  0  0  0  0  0  0  0
    4.5981    3.2500    0.0000 C   0  0  0  0  0  0  0  0  0  0  0  0
    5.4641    4.7500    0.0000 C   0  0  0  0  0  0  0  0  0  0  0  0
    2.8660    1.2500    0.0000 C   0  0  0  0  0  0  0  0  0  0  0  0
    4.5981    4.2500    0.0000 C   0  0  0  0  0  0  0  0  0  0  0  0
    3.7320    4.7500    0.0000 C   0  0  0  0  0  0  0  0  0  0  0  0
    3.7320    5.7500    0.0000 C   0  0  0  0  0  0  0  0  0  0  0  0
    7.7331   -0.5600    0.0000 H   0  0  0  0  0  0  0  0  0  0  0  0
    8.5991    0.5600    0.0000 H   0  0  0  0  0  0  0  0  0  0  0  0
    6.3301   -1.1300    0.0000 H   0  0  0  0  0  0  0  0  0  0  0  0
    6.3301   -3.3700    0.0000 H   0  0  0  0  0  0  0  0  0  0  0  0
    5.7932    0.5600    0.0000 H   0  0  0  0  0  0  0  0  0  0  0  0
    4.9272   -3.5600    0.0000 H   0  0  0  0  0  0  0  0  0  0  0  0
    4.5981   -3.3700    0.0000 H   0  0  0  0  0  0  0  0  0  0  0  0
    8.5991    0.9400    0.0000 H   0  0  0  0  0  0  0  0  0  0  0  0
    4.5981   -1.1300    0.0000 H   0  0  0  0  0  0  0  0  0  0  0  0
    7.7331    2.0600    0.0000 H   0  0  0  0  0  0  0  0  0  0  0  0
    5.0656   -0.7249    0.0000 H   0  0  0  0  0  0  0  0  0  0  0  0
    5.8626   -0.7249    0.0000 H   0  0  0  0  0  0  0  0  0  0  0  0
    3.1215   -1.1423    0.0000 H   0  0  0  0  0  0  0  0  0  0  0  0
    3.5200   -1.8326    0.0000 H   0  0  0  0  0  0  0  0  0  0  0  0
   10.3503   -0.7869    0.0000 H   0  0  0  0  0  0  0  0  0  0  0  0
   11.1972   -0.5600    0.0000 H   0  0  0  0  0  0  0  0  0  0  0  0
   10.9703    0.2869    0.0000 H   0  0  0  0  0  0  0  0  0  0  0  0
    7.7522   -5.2869    0.0000 H   0  0  0  0  0  0  0  0  0  0  0  0
    8.5991   -5.0600    0.0000 H   0  0  0  0  0  0  0  0  0  0  0  0
    8.3722   -4.2131    0.0000 H   0  0  0  0  0  0  0  0  0  0  0  0
    3.9781   -5.7500    0.0000 H   0  0  0  0  0  0  0  0  0  0  0  0
    4.5981   -6.3700    0.0000 H   0  0  0  0  0  0  0  0  0  0  0  0
    5.2181   -5.7500    0.0000 H   0  0  0  0  0  0  0  0  0  0  0  0
    1.6900   -2.7131    0.0000 H   0  0  0  0  0  0  0  0  0  0  0  0
    1.4631   -3.5600    0.0000 H   0  0  0  0  0  0  0  0  0  0  0  0
    2.3100   -3.7869    0.0000 H   0  0  0  0  0  0  0  0  0  0  0  0
   10.1042    2.7131    0.0000 H   0  0  0  0  0  0  0  0  0  0  0  0
   10.3312    3.5600    0.0000 H   0  0  0  0  0  0  0  0  0  0  0  0
    9.4842    3.7869    0.0000 H   0  0  0  0  0  0  0  0  0  0  0  0
    5.4641    2.1300    0.0000 H   0  0  0  0  0  0  0  0  0  0  0  0
    6.8671    4.5600    0.0000 H   0  0  0  0  0  0  0  0  0  0  0  0
    4.0420    2.2869    0.0000 H   0  0  0  0  0  0  0  0  0  0  0  0
    3.1951    2.0600    0.0000 H   0  0  0  0  0  0  0  0  0  0  0  0
    3.4220    1.2131    0.0000 H   0  0  0  0  0  0  0  0  0  0  0  0
    4.0611    2.9400    0.0000 H   0  0  0  0  0  0  0  0  0  0  0  0
    5.4641    5.3700    0.0000 H   0  0  0  0  0  0  0  0  0  0  0  0
    3.4860    1.2500    0.0000 H   0  0  0  0  0  0  0  0  0  0  0  0
    2.8660    1.8700    0.0000 H   0  0  0  0  0  0  0  0  0  0  0  0
    2.2460    1.2500    0.0000 H   0  0  0  0  0  0  0  0  0  0  0  0
    3.1951    4.4400    0.0000 H   0  0  0  0  0  0  0  0  0  0  0  0
    4.2690    6.0600    0.0000 H   0  0  0  0  0  0  0  0  0  0  0  0
    3.1951    6.0600    0.0000 H   0  0  0  0  0  0  0  0  0  0  0  0
  1 19  1  0  0  0  0
  1 21  1  0  0  0  0
  2 21  1  0  0  0  0
  2 27  1  0  0  0  0
  3 23  1  0  0  0  0
  3 28  1  0  0  0  0
  4 20  1  0  0  0  0
  4 31  1  0  0  0  0
  5 22  1  0  0  0  0
  5 32  1  0  0  0  0
  6 24  1  0  0  0  0
  6 33  1  0  0  0  0
  7 25  1  0  0  0  0
  7 34  1  0  0  0  0
  8 26  1  0  0  0  0
  8 35  1  0  0  0  0
  9 28  1  0  0  0  0
  9 36  1  0  0  0  0
 10 29  1  0  0  0  0
 10 38  1  0  0  0  0
 11 30  1  0  0  0  0
 11 42  1  0  0  0  0
 12 31  2  0  0  0  0
 13 32  2  0  0  0  0
 14 33  2  0  0  0  0
 15 34  2  0  0  0  0
 16 35  2  0  0  0  0
 17 38  2  0  0  0  0
 18 42  2  0  0  0  0
 19 20  1  0  0  0  0
 19 23  1  0  0  0  0
 19 53  1  0  0  0  0
 20 26  1  0  0  0  0
 20 54  1  0  0  0  0
 21 22  1  0  0  0  0
 21 55  1  0  0  0  0
 22 24  1  0  0  0  0
 22 56  1  0  0  0  0
 23 29  1  0  0  0  0
 23 57  1  0  0  0  0
 24 25  1  0  0  0  0
 24 58  1  0  0  0  0
 25 27  1  0  0  0  0
 25 59  1  0  0  0  0
 26 28  1  0  0  0  0
 26 60  1  0  0  0  0
 27 30  1  0  0  0  0
 27 61  1  0  0  0  0
 28 62  1  0  0  0  0
 29 63  1  0  0  0  0
 29 64  1  0  0  0  0
 30 65  1  0  0  0  0
 30 66  1  0  0  0  0
 31 37  1  0  0  0  0
 32 39  1  0  0  0  0
 33 40  1  0  0  0  0
 34 41  1  0  0  0  0
 35 43  1  0  0  0  0
 36 44  2  0  0  0  0
 36 45  1  0  0  0  0
 37 67  1  0  0  0  0
 37 68  1  0  0  0  0
 37 69  1  0  0  0  0
 38 46  1  0  0  0  0
 39 70  1  0  0  0  0
 39 71  1  0  0  0  0
 39 72  1  0  0  0  0
 40 73  1  0  0  0  0
 40 74  1  0  0  0  0
 40 75  1  0  0  0  0
 41 76  1  0  0  0  0
 41 77  1  0  0  0  0
 41 78  1  0  0  0  0
 42 49  1  0  0  0  0
 43 79  1  0  0  0  0
 43 80  1  0  0  0  0
 43 81  1  0  0  0  0
 44 47  1  0  0  0  0
 44 82  1  0  0  0  0
 45 48  2  0  0  0  0
 45 83  1  0  0  0  0
 46 84  1  0  0  0  0
 46 85  1  0  0  0  0
 46 86  1  0  0  0  0
 47 50  2  0  0  0  0
 47 87  1  0  0  0  0
 48 50  1  0  0  0  0
 48 88  1  0  0  0  0
 49 89  1  0  0  0  0
 49 90  1  0  0  0  0
 49 91  1  0  0  0  0
 50 51  1  0  0  0  0
 51 52  2  0  0  0  0
 51 92  1  0  0  0  0
 52 93  1  0  0  0  0
 52 94  1  0  0  0  0
M  END
> <PUBCHEM_COMPOUND_CID>
276320

> <PUBCHEM_COMPOUND_CANONICALIZED>
1

> <PUBCHEM_CACTVS_COMPLEXITY>
1310

> <PUBCHEM_CACTVS_HBOND_ACCEPTOR>
18

> <PUBCHEM_CACTVS_HBOND_DONOR>
0

> <PUBCHEM_CACTVS_ROTATABLE_BOND>
21

> <PUBCHEM_CACTVS_SUBSKEYS>
AAADcfB8PgAAAAAAAAAAAAAAAAAAAAAAAAA0SIAAAAAAAAABAAAAGgAAAAAADBSwmAMyDoAABACIAiDSCAACCAAgIAAIiAAGCIgdJiKEMRqiOCClwBEOqAfA4AwOIAAAAAAAAABAAAAAAAAAAAAAAAAAAA==

> <PUBCHEM_IUPAC_OPENEYE_NAME>
[4,5-diacetoxy-3-[3,4,5-triacetoxy-6-(acetoxymethyl)tetrahydropyran-2-yl]oxy-6-(4-vinylphenoxy)tetrahydropyran-2-yl]methyl acetate

> <PUBCHEM_IUPAC_CAS_NAME>
acetic acid [4,5-diacetyloxy-6-(4-ethenylphenoxy)-3-[[3,4,5-triacetyloxy-6-(acetyloxymethyl)-2-oxanyl]oxy]-2-oxanyl]methyl ester

> <PUBCHEM_IUPAC_NAME_MARKUP>
[4,5-diacetyloxy-6-(4-ethenylphenoxy)-3-[3,4,5-triacetyloxy-6-(acetyloxymethyl)oxan-2-yl]oxyoxan-2-yl]methyl acetate

> <PUBCHEM_IUPAC_NAME>
[4,5-diacetyloxy-6-(4-ethenylphenoxy)-3-[3,4,5-triacetyloxy-6-(acetyloxymethyl)oxan-2-yl]oxyoxan-2-yl]methyl acetate

> <PUBCHEM_IUPAC_SYSTEMATIC_NAME>
[4,5-diacetyloxy-6-(4-ethenylphenoxy)-3-[3,4,5-triacetyloxy-6-(acetyloxymethyl)oxan-2-yl]oxy-oxan-2-yl]methyl ethanoate

> <PUBCHEM_IUPAC_TRADITIONAL_NAME>
acetic acid [4,5-diacetoxy-3-[3,4,5-triacetoxy-6-(acetoxymethyl)tetrahydropyran-2-yl]oxy-6-(4-vinylphenoxy)tetrahydropyran-2-yl]methyl ester

> <PUBCHEM_IUPAC_INCHI>
InChI=1S/C34H42O18/c1-9-23-10-12-24(13-11-23)49-33-31(47-21(7)40)30(46-20(6)39)28(26(50-33)15-43-17(3)36)52-34-32(48-22(8)41)29(45-19(5)38)27(44-18(4)37)25(51-34)14-42-16(2)35/h9-13,25-34H,1,14-15H2,2-8H3

> <PUBCHEM_IUPAC_INCHIKEY>
APIFRRYVTYJXCG-UHFFFAOYSA-N

> <PUBCHEM_XLOGP3_AA>
1.9

> <PUBCHEM_EXACT_MASS>
738.23711449

> <PUBCHEM_MOLECULAR_FORMULA>
C34H42O18

> <PUBCHEM_MOLECULAR_WEIGHT>
738.7

> <PUBCHEM_OPENEYE_CAN_SMILES>
CC(=O)OCC1C(C(C(C(O1)OC2=CC=C(C=C2)C=C)OC(=O)C)OC(=O)C)OC3C(C(C(C(O3)COC(=O)C)OC(=O)C)OC(=O)C)OC(=O)C

> <PUBCHEM_OPENEYE_ISO_SMILES>
CC(=O)OCC1C(C(C(C(O1)OC2=CC=C(C=C2)C=C)OC(=O)C)OC(=O)C)OC3C(C(C(C(O3)COC(=O)C)OC(=O)C)OC(=O)C)OC(=O)C

> <PUBCHEM_CACTVS_TPSA>
221

> <PUBCHEM_MONOISOTOPIC_WEIGHT>
738.23711449

> <PUBCHEM_TOTAL_CHARGE>
0

> <PUBCHEM_HEAVY_ATOM_COUNT>
52

> <PUBCHEM_ATOM_DEF_STEREO_COUNT>
0

> <PUBCHEM_ATOM_UDEF_STEREO_COUNT>
10

> <PUBCHEM_BOND_DEF_STEREO_COUNT>
0

> <PUBCHEM_BOND_UDEF_STEREO_COUNT>
0

> <PUBCHEM_ISOTOPIC_ATOM_COUNT>
0

> <PUBCHEM_COMPONENT_COUNT>
1

> <PUBCHEM_CACTVS_TAUTO_COUNT>
-1

> <PUBCHEM_COORDINATE_TYPE>
1
5
255

> <PUBCHEM_BONDANNOTATIONS>
19  1  3
21  1  3
23  29  3
27  30  3
36  44  8
36  45  8
20  4  3
44  47  8
45  48  8
47  50  8
48  50  8
22  5  3
24  6  3
25  7  3
26  8  3
28  9  3

$$$$
