 
  -OEChem-10192104402D

 45 45  0     1  0  0  0  0  0999 V2000
    8.8427   -0.4844    0.0000 O   0  0  0  0  0  0  0  0  0  0  0  0
   11.3459    0.4635    0.0000 O   0  0  0  0  0  0  0  0  0  0  0  0
    6.3395    0.4635    0.0000 O   0  0  0  0  0  0  0  0  0  0  0  0
   10.8107   -1.1838    0.0000 O   0  0  0  0  0  0  0  0  0  0  0  0
    6.8747   -1.1838    0.0000 O   0  0  0  0  0  0  0  0  0  0  0  0
   13.9912    0.5146    0.0000 O   0  0  0  0  0  0  0  0  0  0  0  0
    3.6942    0.5146    0.0000 O   0  0  0  0  0  0  0  0  0  0  0  0
    9.3427    1.0545    0.0000 C   0  0  0  0  0  0  0  0  0  0  0  0
    8.3427    1.0545    0.0000 C   0  0  0  0  0  0  0  0  0  0  0  0
    9.6517    0.1034    0.0000 C   0  0  3  0  0  0  0  0  0  0  0  0
    8.0337    0.1034    0.0000 C   0  0  3  0  0  0  0  0  0  0  0  0
   10.6028   -0.2056    0.0000 C   0  0  0  0  0  0  0  0  0  0  0  0
    7.0826   -0.2056    0.0000 C   0  0  0  0  0  0  0  0  0  0  0  0
   12.2970    0.1545    0.0000 C   0  0  0  0  0  0  0  0  0  0  0  0
    5.3884    0.1545    0.0000 C   0  0  0  0  0  0  0  0  0  0  0  0
   13.0401    0.8236    0.0000 C   0  0  0  0  0  0  0  0  0  0  0  0
    4.6453    0.8236    0.0000 C   0  0  0  0  0  0  0  0  0  0  0  0
   14.7343    1.1838    0.0000 C   0  0  0  0  0  0  0  0  0  0  0  0
    2.9511    1.1838    0.0000 C   0  0  0  0  0  0  0  0  0  0  0  0
   15.6854    0.8747    0.0000 C   0  0  0  0  0  0  0  0  0  0  0  0
    2.0000    0.8747    0.0000 C   0  0  0  0  0  0  0  0  0  0  0  0
    9.9491    1.1834    0.0000 H   0  0  0  0  0  0  0  0  0  0  0  0
    9.2779    1.6711    0.0000 H   0  0  0  0  0  0  0  0  0  0  0  0
    8.4075    1.6711    0.0000 H   0  0  0  0  0  0  0  0  0  0  0  0
    7.7362    1.1834    0.0000 H   0  0  0  0  0  0  0  0  0  0  0  0
    9.7487   -0.5090    0.0000 H   0  0  0  0  0  0  0  0  0  0  0  0
    7.9367   -0.5090    0.0000 H   0  0  0  0  0  0  0  0  0  0  0  0
   12.0059   -0.3929    0.0000 H   0  0  0  0  0  0  0  0  0  0  0  0
   12.7855   -0.2272    0.0000 H   0  0  0  0  0  0  0  0  0  0  0  0
    4.8998   -0.2272    0.0000 H   0  0  0  0  0  0  0  0  0  0  0  0
    5.6795   -0.3929    0.0000 H   0  0  0  0  0  0  0  0  0  0  0  0
   13.3312    1.3711    0.0000 H   0  0  0  0  0  0  0  0  0  0  0  0
   12.5515    1.2054    0.0000 H   0  0  0  0  0  0  0  0  0  0  0  0
    5.1338    1.2054    0.0000 H   0  0  0  0  0  0  0  0  0  0  0  0
    4.3542    1.3711    0.0000 H   0  0  0  0  0  0  0  0  0  0  0  0
   15.0254    1.7312    0.0000 H   0  0  0  0  0  0  0  0  0  0  0  0
   14.2457    1.5655    0.0000 H   0  0  0  0  0  0  0  0  0  0  0  0
    3.4396    1.5655    0.0000 H   0  0  0  0  0  0  0  0  0  0  0  0
    2.6600    1.7312    0.0000 H   0  0  0  0  0  0  0  0  0  0  0  0
   15.4938    0.2851    0.0000 H   0  0  0  0  0  0  0  0  0  0  0  0
   16.2750    0.6831    0.0000 H   0  0  0  0  0  0  0  0  0  0  0  0
   15.8769    1.4644    0.0000 H   0  0  0  0  0  0  0  0  0  0  0  0
    1.8084    1.4644    0.0000 H   0  0  0  0  0  0  0  0  0  0  0  0
    1.4103    0.6831    0.0000 H   0  0  0  0  0  0  0  0  0  0  0  0
    2.1916    0.2851    0.0000 H   0  0  0  0  0  0  0  0  0  0  0  0
  1 10  1  0  0  0  0
  1 11  1  0  0  0  0
  2 12  1  0  0  0  0
  2 14  1  0  0  0  0
  3 13  1  0  0  0  0
  3 15  1  0  0  0  0
  4 12  2  0  0  0  0
  5 13  2  0  0  0  0
  6 16  1  0  0  0  0
  6 18  1  0  0  0  0
  7 17  1  0  0  0  0
  7 19  1  0  0  0  0
  8  9  1  0  0  0  0
  8 10  1  0  0  0  0
  8 22  1  0  0  0  0
  8 23  1  0  0  0  0
  9 11  1  0  0  0  0
  9 24  1  0  0  0  0
  9 25  1  0  0  0  0
 10 12  1  0  0  0  0
 10 26  1  0  0  0  0
 11 13  1  0  0  0  0
 11 27  1  0  0  0  0
 14 16  1  0  0  0  0
 14 28  1  0  0  0  0
 14 29  1  0  0  0  0
 15 17  1  0  0  0  0
 15 30  1  0  0  0  0
 15 31  1  0  0  0  0
 16 32  1  0  0  0  0
 16 33  1  0  0  0  0
 17 34  1  0  0  0  0
 17 35  1  0  0  0  0
 18 20  1  0  0  0  0
 18 36  1  0  0  0  0
 18 37  1  0  0  0  0
 19 21  1  0  0  0  0
 19 38  1  0  0  0  0
 19 39  1  0  0  0  0
 20 40  1  0  0  0  0
 20 41  1  0  0  0  0
 20 42  1  0  0  0  0
 21 43  1  0  0  0  0
 21 44  1  0  0  0  0
 21 45  1  0  0  0  0
M  END
> <PUBCHEM_COMPOUND_CID>
117960777

> <PUBCHEM_COMPOUND_CANONICALIZED>
1

> <PUBCHEM_CACTVS_COMPLEXITY>
288

> <PUBCHEM_CACTVS_HBOND_ACCEPTOR>
7

> <PUBCHEM_CACTVS_HBOND_DONOR>
0

> <PUBCHEM_CACTVS_ROTATABLE_BOND>
12

> <PUBCHEM_CACTVS_SUBSKEYS>
AAADceBwOAAAAAAAAAAAAAAAAAAAASAAAAAAAAAAAAAAAAAAAAAAGgAAAAAACBSggAICCAAABAAIAACQCAIAAAAAAAAAAAFAAAABABIAAAQCAAAEAAACAAGIbAxAAAAAAAAAAAAAAAAAAAAAAAAAAAAAAA==

> <PUBCHEM_IUPAC_OPENEYE_NAME>
bis(2-ethoxyethyl) tetrahydrofuran-2,5-dicarboxylate

> <PUBCHEM_IUPAC_CAS_NAME>
oxolane-2,5-dicarboxylic acid bis(2-ethoxyethyl) ester

> <PUBCHEM_IUPAC_NAME_MARKUP>
bis(2-ethoxyethyl) oxolane-2,5-dicarboxylate

> <PUBCHEM_IUPAC_NAME>
bis(2-ethoxyethyl) oxolane-2,5-dicarboxylate

> <PUBCHEM_IUPAC_SYSTEMATIC_NAME>
bis(2-ethoxyethyl) oxolane-2,5-dicarboxylate

> <PUBCHEM_IUPAC_TRADITIONAL_NAME>
tetrahydrofuran-2,5-dicarboxylic acid bis(2-ethoxyethyl) ester

> <PUBCHEM_IUPAC_INCHI>
InChI=1S/C14H24O7/c1-3-17-7-9-19-13(15)11-5-6-12(21-11)14(16)20-10-8-18-4-2/h11-12H,3-10H2,1-2H3

> <PUBCHEM_IUPAC_INCHIKEY>
STWUZOZMUYTSLY-UHFFFAOYSA-N

> <PUBCHEM_XLOGP3_AA>
0.9

> <PUBCHEM_EXACT_MASS>
304.15220310

> <PUBCHEM_MOLECULAR_FORMULA>
C14H24O7

> <PUBCHEM_MOLECULAR_WEIGHT>
304.34

> <PUBCHEM_OPENEYE_CAN_SMILES>
CCOCCOC(=O)C1CCC(O1)C(=O)OCCOCC

> <PUBCHEM_OPENEYE_ISO_SMILES>
CCOCCOC(=O)C1CCC(O1)C(=O)OCCOCC

> <PUBCHEM_CACTVS_TPSA>
80.3

> <PUBCHEM_MONOISOTOPIC_WEIGHT>
304.15220310

> <PUBCHEM_TOTAL_CHARGE>
0

> <PUBCHEM_HEAVY_ATOM_COUNT>
21

> <PUBCHEM_ATOM_DEF_STEREO_COUNT>
0

> <PUBCHEM_ATOM_UDEF_STEREO_COUNT>
2

> <PUBCHEM_BOND_DEF_STEREO_COUNT>
0

> <PUBCHEM_BOND_UDEF_STEREO_COUNT>
0

> <PUBCHEM_ISOTOPIC_ATOM_COUNT>
0

> <PUBCHEM_COMPONENT_COUNT>
1

> <PUBCHEM_CACTVS_TAUTO_COUNT>
-1

> <PUBCHEM_COORDINATE_TYPE>
1
5
255

> <PUBCHEM_BONDANNOTATIONS>
10  12  3
11  13  3

$$$$
