 
  -OEChem-10192104292D

 25 26  0     0  0  0  0  0  0999 V2000
    5.1350    2.9330    0.0000 O   0  5  0  0  0  0  0  0  0  0  0  0
    3.4030    2.9330    0.0000 O   0  0  0  0  0  0  0  0  0  0  0  0
    4.2690   -1.5670    0.0000 N   0  0  0  0  0  0  0  0  0  0  0  0
    5.1350   -0.0670    0.0000 N   0  0  0  0  0  0  0  0  0  0  0  0
    3.4030   -0.0670    0.0000 N   0  0  0  0  0  0  0  0  0  0  0  0
    6.0010    1.4330    0.0000 N   0  0  0  0  0  0  0  0  0  0  0  0
    2.5369    1.4330    0.0000 N   0  0  0  0  0  0  0  0  0  0  0  0
    4.2690    2.4330    0.0000 N   0  3  0  0  0  0  0  0  0  0  0  0
    3.4030   -2.0670    0.0000 C   0  0  0  0  0  0  0  0  0  0  0  0
    2.4030   -2.0670    0.0000 C   0  0  0  0  0  0  0  0  0  0  0  0
    2.9030   -2.9330    0.0000 C   0  0  0  0  0  0  0  0  0  0  0  0
    4.2690   -0.5670    0.0000 C   0  0  0  0  0  0  0  0  0  0  0  0
    5.1350    0.9330    0.0000 C   0  0  0  0  0  0  0  0  0  0  0  0
    3.4030    0.9330    0.0000 C   0  0  0  0  0  0  0  0  0  0  0  0
    4.2690    1.4330    0.0000 C   0  0  0  0  0  0  0  0  0  0  0  0
    3.2425   -1.4681    0.0000 H   0  0  0  0  0  0  0  0  0  0  0  0
    2.2953   -1.4564    0.0000 H   0  0  0  0  0  0  0  0  0  0  0  0
    1.8204   -2.2790    0.0000 H   0  0  0  0  0  0  0  0  0  0  0  0
    2.4280   -3.3315    0.0000 H   0  0  0  0  0  0  0  0  0  0  0  0
    3.3779   -3.3315    0.0000 H   0  0  0  0  0  0  0  0  0  0  0  0
    4.8059   -1.8770    0.0000 H   0  0  0  0  0  0  0  0  0  0  0  0
    6.5380    1.1230    0.0000 H   0  0  0  0  0  0  0  0  0  0  0  0
    6.0010    2.0530    0.0000 H   0  0  0  0  0  0  0  0  0  0  0  0
    2.0000    1.1230    0.0000 H   0  0  0  0  0  0  0  0  0  0  0  0
    2.5369    2.0530    0.0000 H   0  0  0  0  0  0  0  0  0  0  0  0
  1  8  1  0  0  0  0
  2  8  2  0  0  0  0
  3  9  1  0  0  0  0
  3 12  1  0  0  0  0
  3 21  1  0  0  0  0
  4 12  1  0  0  0  0
  4 13  2  0  0  0  0
  5 12  2  0  0  0  0
  5 14  1  0  0  0  0
  6 13  1  0  0  0  0
  6 22  1  0  0  0  0
  6 23  1  0  0  0  0
  7 14  1  0  0  0  0
  7 24  1  0  0  0  0
  7 25  1  0  0  0  0
  8 15  1  0  0  0  0
  9 10  1  0  0  0  0
  9 11  1  0  0  0  0
  9 16  1  0  0  0  0
 10 11  1  0  0  0  0
 10 17  1  0  0  0  0
 10 18  1  0  0  0  0
 11 19  1  0  0  0  0
 11 20  1  0  0  0  0
 13 15  1  0  0  0  0
 14 15  2  0  0  0  0
M  CHG  2   1  -1   8   1
M  END
> <PUBCHEM_COMPOUND_CID>
13558029

> <PUBCHEM_COMPOUND_CANONICALIZED>
1

> <PUBCHEM_CACTVS_COMPLEXITY>
240

> <PUBCHEM_CACTVS_HBOND_ACCEPTOR>
7

> <PUBCHEM_CACTVS_HBOND_DONOR>
3

> <PUBCHEM_CACTVS_ROTATABLE_BOND>
2

> <PUBCHEM_CACTVS_SUBSKEYS>
AAADccBjsAAAAAAAAAAAAAAAGAAAAAAAAAAsAAAAAAAAAAABgAAAHAAUAAAACCjBEgQB8JbYUAChAAZgZwCAgCkBEKAhEKAoVBKASABASEAUBAgIEIJAACAAAAAAAAAAAAAAAAAAAAAAAAAAAAAAAAAAAA==

> <PUBCHEM_IUPAC_OPENEYE_NAME>
N2-cyclopropyl-5-nitro-pyrimidine-2,4,6-triamine

> <PUBCHEM_IUPAC_CAS_NAME>
N2-cyclopropyl-5-nitropyrimidine-2,4,6-triamine

> <PUBCHEM_IUPAC_NAME_MARKUP>
2-<I>N</I>-cyclopropyl-5-nitropyrimidine-2,4,6-triamine

> <PUBCHEM_IUPAC_NAME>
2-N-cyclopropyl-5-nitropyrimidine-2,4,6-triamine

> <PUBCHEM_IUPAC_SYSTEMATIC_NAME>
N2-cyclopropyl-5-nitro-pyrimidine-2,4,6-triamine

> <PUBCHEM_IUPAC_TRADITIONAL_NAME>
cyclopropyl-(4,6-diamino-5-nitro-pyrimidin-2-yl)amine

> <PUBCHEM_IUPAC_INCHI>
InChI=1S/C7H10N6O2/c8-5-4(13(14)15)6(9)12-7(11-5)10-3-1-2-3/h3H,1-2H2,(H5,8,9,10,11,12)

> <PUBCHEM_IUPAC_INCHIKEY>
QEFLFTGDCYKVOB-UHFFFAOYSA-N

> <PUBCHEM_XLOGP3_AA>
1.3

> <PUBCHEM_EXACT_MASS>
210.08652358

> <PUBCHEM_MOLECULAR_FORMULA>
C7H10N6O2

> <PUBCHEM_MOLECULAR_WEIGHT>
210.19

> <PUBCHEM_OPENEYE_CAN_SMILES>
C1CC1NC2=NC(=C(C(=N2)N)[N+](=O)[O-])N

> <PUBCHEM_OPENEYE_ISO_SMILES>
C1CC1NC2=NC(=C(C(=N2)N)[N+](=O)[O-])N

> <PUBCHEM_CACTVS_TPSA>
136

> <PUBCHEM_MONOISOTOPIC_WEIGHT>
210.08652358

> <PUBCHEM_TOTAL_CHARGE>
0

> <PUBCHEM_HEAVY_ATOM_COUNT>
15

> <PUBCHEM_ATOM_DEF_STEREO_COUNT>
0

> <PUBCHEM_ATOM_UDEF_STEREO_COUNT>
0

> <PUBCHEM_BOND_DEF_STEREO_COUNT>
0

> <PUBCHEM_BOND_UDEF_STEREO_COUNT>
0

> <PUBCHEM_ISOTOPIC_ATOM_COUNT>
0

> <PUBCHEM_COMPONENT_COUNT>
1

> <PUBCHEM_CACTVS_TAUTO_COUNT>
-1

> <PUBCHEM_COORDINATE_TYPE>
1
5
255

> <PUBCHEM_BONDANNOTATIONS>
13  15  8
14  15  8
4  12  8
4  13  8
5  12  8
5  14  8

$$$$
