 
  -OEChem-10192103512D

 74 73  0     1  0  0  0  0  0999 V2000
   10.6603    1.7500    0.0000 O   0  0  0  0  0  0  0  0  0  0  0  0
    3.7320    1.7500    0.0000 O   0  0  0  0  0  0  0  0  0  0  0  0
    7.1962   -1.2500    0.0000 O   0  0  0  0  0  0  0  0  0  0  0  0
    9.7942    3.2500    0.0000 O   0  0  0  0  0  0  0  0  0  0  0  0
    4.5981    3.2500    0.0000 O   0  0  0  0  0  0  0  0  0  0  0  0
    7.1962    0.7500    0.0000 O   0  0  0  0  0  0  0  0  0  0  0  0
    8.9282   -1.2500    0.0000 O   0  0  0  0  0  0  0  0  0  0  0  0
    3.7320   -1.2500    0.0000 O   0  0  0  0  0  0  0  0  0  0  0  0
    5.4641   -1.2500    0.0000 O   0  0  0  0  0  0  0  0  0  0  0  0
    8.0622    2.2500    0.0000 N   0  0  0  0  0  0  0  0  0  0  0  0
    6.3301    2.2500    0.0000 N   0  0  0  0  0  0  0  0  0  0  0  0
    8.9282    1.7500    0.0000 C   0  0  3  0  0  0  0  0  0  0  0  0
    8.9282    0.7500    0.0000 C   0  0  0  0  0  0  0  0  0  0  0  0
    5.4641    1.7500    0.0000 C   0  0  3  0  0  0  0  0  0  0  0  0
   11.5263    2.2500    0.0000 C   0  0  0  0  0  0  0  0  0  0  0  0
    8.0622    0.2500    0.0000 C   0  0  0  0  0  0  0  0  0  0  0  0
    5.4641    0.7500    0.0000 C   0  0  0  0  0  0  0  0  0  0  0  0
    2.8660    2.2500    0.0000 C   0  0  0  0  0  0  0  0  0  0  0  0
    9.7942    2.2500    0.0000 C   0  0  0  0  0  0  0  0  0  0  0  0
    7.1962   -2.2500    0.0000 C   0  0  0  0  0  0  0  0  0  0  0  0
    4.5981    2.2500    0.0000 C   0  0  0  0  0  0  0  0  0  0  0  0
    7.1962    1.7500    0.0000 C   0  0  0  0  0  0  0  0  0  0  0  0
    4.5981    0.2500    0.0000 C   0  0  0  0  0  0  0  0  0  0  0  0
    8.0622   -0.7500    0.0000 C   0  0  0  0  0  0  0  0  0  0  0  0
   12.3923    2.7500    0.0000 C   0  0  0  0  0  0  0  0  0  0  0  0
   12.0263    1.3840    0.0000 C   0  0  0  0  0  0  0  0  0  0  0  0
   11.0263    3.1160    0.0000 C   0  0  0  0  0  0  0  0  0  0  0  0
    2.0000    2.7500    0.0000 C   0  0  0  0  0  0  0  0  0  0  0  0
    2.3660    1.3840    0.0000 C   0  0  0  0  0  0  0  0  0  0  0  0
    3.3660    3.1160    0.0000 C   0  0  0  0  0  0  0  0  0  0  0  0
    7.1962   -3.2500    0.0000 C   0  0  0  0  0  0  0  0  0  0  0  0
    6.1962   -2.2500    0.0000 C   0  0  0  0  0  0  0  0  0  0  0  0
    8.1962   -2.2500    0.0000 C   0  0  0  0  0  0  0  0  0  0  0  0
    4.5981   -0.7500    0.0000 C   0  0  0  0  0  0  0  0  0  0  0  0
    8.9282    2.3700    0.0000 H   0  0  0  0  0  0  0  0  0  0  0  0
    9.1403    0.1674    0.0000 H   0  0  0  0  0  0  0  0  0  0  0  0
    9.5388    0.8577    0.0000 H   0  0  0  0  0  0  0  0  0  0  0  0
    5.4641    2.3700    0.0000 H   0  0  0  0  0  0  0  0  0  0  0  0
    7.8501    0.8326    0.0000 H   0  0  0  0  0  0  0  0  0  0  0  0
    7.4516    0.1423    0.0000 H   0  0  0  0  0  0  0  0  0  0  0  0
    5.6762    0.1674    0.0000 H   0  0  0  0  0  0  0  0  0  0  0  0
    6.0747    0.8577    0.0000 H   0  0  0  0  0  0  0  0  0  0  0  0
    8.0622    2.8700    0.0000 H   0  0  0  0  0  0  0  0  0  0  0  0
    6.3301    2.8700    0.0000 H   0  0  0  0  0  0  0  0  0  0  0  0
    4.3860    0.8326    0.0000 H   0  0  0  0  0  0  0  0  0  0  0  0
    3.9875    0.1423    0.0000 H   0  0  0  0  0  0  0  0  0  0  0  0
   12.7023    2.2131    0.0000 H   0  0  0  0  0  0  0  0  0  0  0  0
   12.9292    3.0600    0.0000 H   0  0  0  0  0  0  0  0  0  0  0  0
   12.0823    3.2869    0.0000 H   0  0  0  0  0  0  0  0  0  0  0  0
   11.4893    1.0740    0.0000 H   0  0  0  0  0  0  0  0  0  0  0  0
   12.3363    0.8470    0.0000 H   0  0  0  0  0  0  0  0  0  0  0  0
   12.5632    1.6940    0.0000 H   0  0  0  0  0  0  0  0  0  0  0  0
   11.5632    3.4260    0.0000 H   0  0  0  0  0  0  0  0  0  0  0  0
   10.7163    3.6530    0.0000 H   0  0  0  0  0  0  0  0  0  0  0  0
   10.4893    2.8060    0.0000 H   0  0  0  0  0  0  0  0  0  0  0  0
    2.3100    3.2869    0.0000 H   0  0  0  0  0  0  0  0  0  0  0  0
    1.4631    3.0600    0.0000 H   0  0  0  0  0  0  0  0  0  0  0  0
    1.6900    2.2131    0.0000 H   0  0  0  0  0  0  0  0  0  0  0  0
    1.8291    1.6940    0.0000 H   0  0  0  0  0  0  0  0  0  0  0  0
    2.0560    0.8470    0.0000 H   0  0  0  0  0  0  0  0  0  0  0  0
    2.9030    1.0740    0.0000 H   0  0  0  0  0  0  0  0  0  0  0  0
    3.9030    2.8060    0.0000 H   0  0  0  0  0  0  0  0  0  0  0  0
    3.6760    3.6530    0.0000 H   0  0  0  0  0  0  0  0  0  0  0  0
    2.8291    3.4260    0.0000 H   0  0  0  0  0  0  0  0  0  0  0  0
    6.5762   -3.2500    0.0000 H   0  0  0  0  0  0  0  0  0  0  0  0
    7.1962   -3.8700    0.0000 H   0  0  0  0  0  0  0  0  0  0  0  0
    7.8162   -3.2500    0.0000 H   0  0  0  0  0  0  0  0  0  0  0  0
    6.1962   -1.6300    0.0000 H   0  0  0  0  0  0  0  0  0  0  0  0
    5.5762   -2.2500    0.0000 H   0  0  0  0  0  0  0  0  0  0  0  0
    6.1962   -2.8700    0.0000 H   0  0  0  0  0  0  0  0  0  0  0  0
    8.1962   -2.8700    0.0000 H   0  0  0  0  0  0  0  0  0  0  0  0
    8.8162   -2.2500    0.0000 H   0  0  0  0  0  0  0  0  0  0  0  0
    8.1962   -1.6300    0.0000 H   0  0  0  0  0  0  0  0  0  0  0  0
    3.7320   -1.8700    0.0000 H   0  0  0  0  0  0  0  0  0  0  0  0
  1 15  1  0  0  0  0
  1 19  1  0  0  0  0
  2 18  1  0  0  0  0
  2 21  1  0  0  0  0
  3 20  1  0  0  0  0
  3 24  1  0  0  0  0
  4 19  2  0  0  0  0
  5 21  2  0  0  0  0
  6 22  2  0  0  0  0
  7 24  2  0  0  0  0
  8 34  1  0  0  0  0
  8 74  1  0  0  0  0
  9 34  2  0  0  0  0
 10 12  1  0  0  0  0
 10 22  1  0  0  0  0
 10 43  1  0  0  0  0
 11 14  1  0  0  0  0
 11 22  1  0  0  0  0
 11 44  1  0  0  0  0
 12 13  1  0  0  0  0
 12 19  1  0  0  0  0
 12 35  1  0  0  0  0
 13 16  1  0  0  0  0
 13 36  1  0  0  0  0
 13 37  1  0  0  0  0
 14 17  1  0  0  0  0
 14 21  1  0  0  0  0
 14 38  1  0  0  0  0
 15 25  1  0  0  0  0
 15 26  1  0  0  0  0
 15 27  1  0  0  0  0
 16 24  1  0  0  0  0
 16 39  1  0  0  0  0
 16 40  1  0  0  0  0
 17 23  1  0  0  0  0
 17 41  1  0  0  0  0
 17 42  1  0  0  0  0
 18 28  1  0  0  0  0
 18 29  1  0  0  0  0
 18 30  1  0  0  0  0
 20 31  1  0  0  0  0
 20 32  1  0  0  0  0
 20 33  1  0  0  0  0
 23 34  1  0  0  0  0
 23 45  1  0  0  0  0
 23 46  1  0  0  0  0
 25 47  1  0  0  0  0
 25 48  1  0  0  0  0
 25 49  1  0  0  0  0
 26 50  1  0  0  0  0
 26 51  1  0  0  0  0
 26 52  1  0  0  0  0
 27 53  1  0  0  0  0
 27 54  1  0  0  0  0
 27 55  1  0  0  0  0
 28 56  1  0  0  0  0
 28 57  1  0  0  0  0
 28 58  1  0  0  0  0
 29 59  1  0  0  0  0
 29 60  1  0  0  0  0
 29 61  1  0  0  0  0
 30 62  1  0  0  0  0
 30 63  1  0  0  0  0
 30 64  1  0  0  0  0
 31 65  1  0  0  0  0
 31 66  1  0  0  0  0
 31 67  1  0  0  0  0
 32 68  1  0  0  0  0
 32 69  1  0  0  0  0
 32 70  1  0  0  0  0
 33 71  1  0  0  0  0
 33 72  1  0  0  0  0
 33 73  1  0  0  0  0
M  END
> <PUBCHEM_COMPOUND_CID>
87235767

> <PUBCHEM_COMPOUND_CANONICALIZED>
1

> <PUBCHEM_CACTVS_COMPLEXITY>
743

> <PUBCHEM_CACTVS_HBOND_ACCEPTOR>
9

> <PUBCHEM_CACTVS_HBOND_DONOR>
3

> <PUBCHEM_CACTVS_ROTATABLE_BOND>
16

> <PUBCHEM_CACTVS_SUBSKEYS>
AAADcfB7PAAAAAAAAAAAAAAAAAAAAAAAAAAAAAAAAAAAAAAAAAAAHgAQCAAADGzBgAQDCALABgAIAACQGAAAAAAAAAAAAIGIAACCABIAgCAHQAAMFgIQAACsJggAAAAAAAAAAAAAAAAAAAAAAAAAAAAAAA==

> <PUBCHEM_IUPAC_OPENEYE_NAME>
5-tert-butoxy-4-[(4-tert-butoxy-1-tert-butoxycarbonyl-4-oxo-butyl)carbamoylamino]-5-oxo-pentanoic acid

> <PUBCHEM_IUPAC_CAS_NAME>
4-[[[[1,5-bis[(2-methylpropan-2-yl)oxy]-1,5-dioxopentan-2-yl]amino]-oxomethyl]amino]-5-[(2-methylpropan-2-yl)oxy]-5-oxopentanoic acid

> <PUBCHEM_IUPAC_NAME_MARKUP>
4-[[1,5-bis[(2-methylpropan-2-yl)oxy]-1,5-dioxopentan-2-yl]carbamoylamino]-5-[(2-methylpropan-2-yl)oxy]-5-oxopentanoic acid

> <PUBCHEM_IUPAC_NAME>
4-[[1,5-bis[(2-methylpropan-2-yl)oxy]-1,5-dioxopentan-2-yl]carbamoylamino]-5-[(2-methylpropan-2-yl)oxy]-5-oxopentanoic acid

> <PUBCHEM_IUPAC_SYSTEMATIC_NAME>
4-[[1,5-bis[(2-methylpropan-2-yl)oxy]-1,5-bis(oxidanylidene)pentan-2-yl]carbamoylamino]-5-[(2-methylpropan-2-yl)oxy]-5-oxidanylidene-pentanoic acid

> <PUBCHEM_IUPAC_TRADITIONAL_NAME>
5-tert-butoxy-4-[(4-tert-butoxy-1-tert-butoxycarbonyl-4-keto-butyl)carbamoylamino]-5-keto-valeric acid

> <PUBCHEM_IUPAC_INCHI>
InChI=1S/C23H40N2O9/c1-21(2,3)32-17(28)13-11-15(19(30)34-23(7,8)9)25-20(31)24-14(10-12-16(26)27)18(29)33-22(4,5)6/h14-15H,10-13H2,1-9H3,(H,26,27)(H2,24,25,31)

> <PUBCHEM_IUPAC_INCHIKEY>
KBDDHSXZOLZZGF-UHFFFAOYSA-N

> <PUBCHEM_XLOGP3_AA>
2.3

> <PUBCHEM_EXACT_MASS>
488.27338086

> <PUBCHEM_MOLECULAR_FORMULA>
C23H40N2O9

> <PUBCHEM_MOLECULAR_WEIGHT>
488.6

> <PUBCHEM_OPENEYE_CAN_SMILES>
CC(C)(C)OC(=O)CCC(C(=O)OC(C)(C)C)NC(=O)NC(CCC(=O)O)C(=O)OC(C)(C)C

> <PUBCHEM_OPENEYE_ISO_SMILES>
CC(C)(C)OC(=O)CCC(C(=O)OC(C)(C)C)NC(=O)NC(CCC(=O)O)C(=O)OC(C)(C)C

> <PUBCHEM_CACTVS_TPSA>
157

> <PUBCHEM_MONOISOTOPIC_WEIGHT>
488.27338086

> <PUBCHEM_TOTAL_CHARGE>
0

> <PUBCHEM_HEAVY_ATOM_COUNT>
34

> <PUBCHEM_ATOM_DEF_STEREO_COUNT>
0

> <PUBCHEM_ATOM_UDEF_STEREO_COUNT>
2

> <PUBCHEM_BOND_DEF_STEREO_COUNT>
0

> <PUBCHEM_BOND_UDEF_STEREO_COUNT>
0

> <PUBCHEM_ISOTOPIC_ATOM_COUNT>
0

> <PUBCHEM_COMPONENT_COUNT>
1

> <PUBCHEM_CACTVS_TAUTO_COUNT>
-1

> <PUBCHEM_COORDINATE_TYPE>
1
5
255

> <PUBCHEM_BONDANNOTATIONS>
12  13  3
14  17  3

$$$$
