 
  -OEChem-10192104422D

 45 44  0     1  0  0  0  0  0999 V2000
   12.9292   -1.0950    0.0000 O   0  0  0  0  0  0  0  0  0  0  0  0
   10.3312    0.4050    0.0000 O   0  0  0  0  0  0  0  0  0  0  0  0
    6.8671    0.4050    0.0000 O   0  0  0  0  0  0  0  0  0  0  0  0
   11.1972   -1.0950    0.0000 O   0  0  0  0  0  0  0  0  0  0  0  0
    7.7331   -1.0950    0.0000 O   0  0  0  0  0  0  0  0  0  0  0  0
    2.5369   -0.0950    0.0000 O   0  0  0  0  0  0  0  0  0  0  0  0
    3.4030    1.4050    0.0000 O   0  0  0  0  0  0  0  0  0  0  0  0
   13.7953    0.4050    0.0000 C   0  0  0  0  0  0  0  0  0  0  0  0
   12.9292   -0.0950    0.0000 C   0  0  3  0  0  0  0  0  0  0  0  0
   14.6613   -0.0950    0.0000 C   0  0  0  0  0  0  0  0  0  0  0  0
   12.0632    0.4050    0.0000 C   0  0  0  0  0  0  0  0  0  0  0  0
   15.5273    0.4050    0.0000 C   0  0  0  0  0  0  0  0  0  0  0  0
   16.3933   -0.0950    0.0000 C   0  0  0  0  0  0  0  0  0  0  0  0
   11.1972   -0.0950    0.0000 C   0  0  0  0  0  0  0  0  0  0  0  0
    9.4651   -0.0950    0.0000 C   0  0  0  0  0  0  0  0  0  0  0  0
    8.5991    0.4050    0.0000 C   0  0  0  0  0  0  0  0  0  0  0  0
    5.1350    0.4050    0.0000 C   0  0  0  0  0  0  0  0  0  0  0  0
    6.0010   -0.0950    0.0000 C   0  0  0  0  0  0  0  0  0  0  0  0
    4.2690   -0.0950    0.0000 C   0  0  0  0  0  0  0  0  0  0  0  0
    7.7331   -0.0950    0.0000 C   0  0  0  0  0  0  0  0  0  0  0  0
    3.4030    0.4050    0.0000 C   0  0  0  0  0  0  0  0  0  0  0  0
   14.1938    0.8799    0.0000 H   0  0  0  0  0  0  0  0  0  0  0  0
   13.3967    0.8799    0.0000 H   0  0  0  0  0  0  0  0  0  0  0  0
   12.3923   -0.4050    0.0000 H   0  0  0  0  0  0  0  0  0  0  0  0
   14.2628   -0.5699    0.0000 H   0  0  0  0  0  0  0  0  0  0  0  0
   15.0598   -0.5699    0.0000 H   0  0  0  0  0  0  0  0  0  0  0  0
   12.4617    0.8799    0.0000 H   0  0  0  0  0  0  0  0  0  0  0  0
   11.6647    0.8799    0.0000 H   0  0  0  0  0  0  0  0  0  0  0  0
   15.9258    0.8799    0.0000 H   0  0  0  0  0  0  0  0  0  0  0  0
   15.1288    0.8799    0.0000 H   0  0  0  0  0  0  0  0  0  0  0  0
   16.0833   -0.6319    0.0000 H   0  0  0  0  0  0  0  0  0  0  0  0
   16.9303   -0.4050    0.0000 H   0  0  0  0  0  0  0  0  0  0  0  0
   16.7033    0.4419    0.0000 H   0  0  0  0  0  0  0  0  0  0  0  0
   13.4662   -1.4050    0.0000 H   0  0  0  0  0  0  0  0  0  0  0  0
    9.0666   -0.5699    0.0000 H   0  0  0  0  0  0  0  0  0  0  0  0
    9.8637   -0.5699    0.0000 H   0  0  0  0  0  0  0  0  0  0  0  0
    8.9976    0.8799    0.0000 H   0  0  0  0  0  0  0  0  0  0  0  0
    8.2006    0.8799    0.0000 H   0  0  0  0  0  0  0  0  0  0  0  0
    5.5335    0.8799    0.0000 H   0  0  0  0  0  0  0  0  0  0  0  0
    4.7365    0.8799    0.0000 H   0  0  0  0  0  0  0  0  0  0  0  0
    5.6025   -0.5699    0.0000 H   0  0  0  0  0  0  0  0  0  0  0  0
    6.3996   -0.5699    0.0000 H   0  0  0  0  0  0  0  0  0  0  0  0
    3.8705   -0.5699    0.0000 H   0  0  0  0  0  0  0  0  0  0  0  0
    4.6675   -0.5699    0.0000 H   0  0  0  0  0  0  0  0  0  0  0  0
    2.0000    0.2150    0.0000 H   0  0  0  0  0  0  0  0  0  0  0  0
  1  9  1  0  0  0  0
  1 34  1  0  0  0  0
  2 14  1  0  0  0  0
  2 15  1  0  0  0  0
  3 18  1  0  0  0  0
  3 20  1  0  0  0  0
  4 14  2  0  0  0  0
  5 20  2  0  0  0  0
  6 21  1  0  0  0  0
  6 45  1  0  0  0  0
  7 21  2  0  0  0  0
  8  9  1  0  0  0  0
  8 10  1  0  0  0  0
  8 22  1  0  0  0  0
  8 23  1  0  0  0  0
  9 11  1  0  0  0  0
  9 24  1  0  0  0  0
 10 12  1  0  0  0  0
 10 25  1  0  0  0  0
 10 26  1  0  0  0  0
 11 14  1  0  0  0  0
 11 27  1  0  0  0  0
 11 28  1  0  0  0  0
 12 13  1  0  0  0  0
 12 29  1  0  0  0  0
 12 30  1  0  0  0  0
 13 31  1  0  0  0  0
 13 32  1  0  0  0  0
 13 33  1  0  0  0  0
 15 16  1  0  0  0  0
 15 35  1  0  0  0  0
 15 36  1  0  0  0  0
 16 20  1  0  0  0  0
 16 37  1  0  0  0  0
 16 38  1  0  0  0  0
 17 18  1  0  0  0  0
 17 19  1  0  0  0  0
 17 39  1  0  0  0  0
 17 40  1  0  0  0  0
 18 41  1  0  0  0  0
 18 42  1  0  0  0  0
 19 21  1  0  0  0  0
 19 43  1  0  0  0  0
 19 44  1  0  0  0  0
M  END
> <PUBCHEM_COMPOUND_CID>
87325946

> <PUBCHEM_COMPOUND_CANONICALIZED>
1

> <PUBCHEM_CACTVS_COMPLEXITY>
327

> <PUBCHEM_CACTVS_HBOND_ACCEPTOR>
7

> <PUBCHEM_CACTVS_HBOND_DONOR>
2

> <PUBCHEM_CACTVS_ROTATABLE_BOND>
14

> <PUBCHEM_CACTVS_SUBSKEYS>
AAADceBwOAAAAAAAAAAAAAAAAAAAAAAAAAAAAAAAAAAAAAAAAAAAGgAACAAACBSggAICCAAABgAIAACQCAAAAAAAAAAAAAEAAAAAEBYAAAACQAAFIAAAAAHKyCCAAAAAAAAAAAAAAAAAAAAAAAAAAAAAAA==

> <PUBCHEM_IUPAC_OPENEYE_NAME>
4-[3-(3-hydroxyheptanoyloxy)propanoyloxy]butanoic acid

> <PUBCHEM_IUPAC_CAS_NAME>
4-[3-(3-hydroxy-1-oxoheptoxy)-1-oxopropoxy]butanoic acid

> <PUBCHEM_IUPAC_NAME_MARKUP>
4-[3-(3-hydroxyheptanoyloxy)propanoyloxy]butanoic acid

> <PUBCHEM_IUPAC_NAME>
4-[3-(3-hydroxyheptanoyloxy)propanoyloxy]butanoic acid

> <PUBCHEM_IUPAC_SYSTEMATIC_NAME>
4-[3-(3-oxidanylheptanoyloxy)propanoyloxy]butanoic acid

> <PUBCHEM_IUPAC_TRADITIONAL_NAME>
4-[3-(3-hydroxyheptanoyloxy)propanoyloxy]butyric acid

> <PUBCHEM_IUPAC_INCHI>
InChI=1S/C14H24O7/c1-2-3-5-11(15)10-14(19)21-9-7-13(18)20-8-4-6-12(16)17/h11,15H,2-10H2,1H3,(H,16,17)

> <PUBCHEM_IUPAC_INCHIKEY>
YYKFUHOBAITZQZ-UHFFFAOYSA-N

> <PUBCHEM_XLOGP3_AA>
0.9

> <PUBCHEM_EXACT_MASS>
304.15220310

> <PUBCHEM_MOLECULAR_FORMULA>
C14H24O7

> <PUBCHEM_MOLECULAR_WEIGHT>
304.34

> <PUBCHEM_OPENEYE_CAN_SMILES>
CCCCC(CC(=O)OCCC(=O)OCCCC(=O)O)O

> <PUBCHEM_OPENEYE_ISO_SMILES>
CCCCC(CC(=O)OCCC(=O)OCCCC(=O)O)O

> <PUBCHEM_CACTVS_TPSA>
110

> <PUBCHEM_MONOISOTOPIC_WEIGHT>
304.15220310

> <PUBCHEM_TOTAL_CHARGE>
0

> <PUBCHEM_HEAVY_ATOM_COUNT>
21

> <PUBCHEM_ATOM_DEF_STEREO_COUNT>
0

> <PUBCHEM_ATOM_UDEF_STEREO_COUNT>
1

> <PUBCHEM_BOND_DEF_STEREO_COUNT>
0

> <PUBCHEM_BOND_UDEF_STEREO_COUNT>
0

> <PUBCHEM_ISOTOPIC_ATOM_COUNT>
0

> <PUBCHEM_COMPONENT_COUNT>
1

> <PUBCHEM_CACTVS_TAUTO_COUNT>
-1

> <PUBCHEM_COORDINATE_TYPE>
1
5
255

> <PUBCHEM_BONDANNOTATIONS>
9  1  3

$$$$
