 
  -OEChem-10192104072D

 46 46  0     0  0  0  0  0  0999 V2000
    2.8660   -1.1270    0.0000 O   0  0  0  0  0  0  0  0  0  0  0  0
    6.3301   -1.1270    0.0000 O   0  0  0  0  0  0  0  0  0  0  0  0
    6.3301    2.8730    0.0000 O   0  0  0  0  0  0  0  0  0  0  0  0
    7.1962    1.3730    0.0000 O   0  0  0  0  0  0  0  0  0  0  0  0
    2.0000    3.3730    0.0000 O   0  0  0  0  0  0  0  0  0  0  0  0
    3.7320    3.3730    0.0000 O   0  0  0  0  0  0  0  0  0  0  0  0
    3.7320    0.3730    0.0000 N   0  0  0  0  0  0  0  0  0  0  0  0
    4.5981   -3.1270    0.0000 C   0  0  0  0  0  0  0  0  0  0  0  0
    3.7320   -2.6270    0.0000 C   0  0  0  0  0  0  0  0  0  0  0  0
    5.4641   -2.6270    0.0000 C   0  0  0  0  0  0  0  0  0  0  0  0
    5.0981   -3.9930    0.0000 C   0  0  0  0  0  0  0  0  0  0  0  0
    4.0981   -3.9930    0.0000 C   0  0  0  0  0  0  0  0  0  0  0  0
    3.7320   -1.6270    0.0000 C   0  0  0  0  0  0  0  0  0  0  0  0
    5.4641   -1.6270    0.0000 C   0  0  0  0  0  0  0  0  0  0  0  0
    4.5981   -1.1270    0.0000 C   0  0  0  0  0  0  0  0  0  0  0  0
    4.5981   -0.1270    0.0000 C   0  0  0  0  0  0  0  0  0  0  0  0
    5.4641    0.3730    0.0000 C   0  0  0  0  0  0  0  0  0  0  0  0
    5.4641    1.3730    0.0000 C   0  0  0  0  0  0  0  0  0  0  0  0
    3.7320    1.3730    0.0000 C   0  0  0  0  0  0  0  0  0  0  0  0
    6.3301    1.8730    0.0000 C   0  0  0  0  0  0  0  0  0  0  0  0
    2.8660    1.8730    0.0000 C   0  0  0  0  0  0  0  0  0  0  0  0
    2.8660    2.8730    0.0000 C   0  0  0  0  0  0  0  0  0  0  0  0
    7.1962    3.3730    0.0000 C   0  0  0  0  0  0  0  0  0  0  0  0
    3.1215   -2.5193    0.0000 H   0  0  0  0  0  0  0  0  0  0  0  0
    3.5200   -3.2096    0.0000 H   0  0  0  0  0  0  0  0  0  0  0  0
    5.6762   -3.2096    0.0000 H   0  0  0  0  0  0  0  0  0  0  0  0
    6.0747   -2.5193    0.0000 H   0  0  0  0  0  0  0  0  0  0  0  0
    4.5611   -4.3030    0.0000 H   0  0  0  0  0  0  0  0  0  0  0  0
    5.4081   -4.5300    0.0000 H   0  0  0  0  0  0  0  0  0  0  0  0
    5.6350   -3.6830    0.0000 H   0  0  0  0  0  0  0  0  0  0  0  0
    3.5611   -3.6830    0.0000 H   0  0  0  0  0  0  0  0  0  0  0  0
    3.7881   -4.5300    0.0000 H   0  0  0  0  0  0  0  0  0  0  0  0
    4.6350   -4.3030    0.0000 H   0  0  0  0  0  0  0  0  0  0  0  0
    5.6762   -0.2096    0.0000 H   0  0  0  0  0  0  0  0  0  0  0  0
    6.0747    0.4807    0.0000 H   0  0  0  0  0  0  0  0  0  0  0  0
    2.3291   -1.4370    0.0000 H   0  0  0  0  0  0  0  0  0  0  0  0
    5.2520    1.9556    0.0000 H   0  0  0  0  0  0  0  0  0  0  0  0
    4.8535    1.2654    0.0000 H   0  0  0  0  0  0  0  0  0  0  0  0
    4.3426    1.2654    0.0000 H   0  0  0  0  0  0  0  0  0  0  0  0
    3.9441    1.9556    0.0000 H   0  0  0  0  0  0  0  0  0  0  0  0
    2.2554    1.9807    0.0000 H   0  0  0  0  0  0  0  0  0  0  0  0
    2.6540    1.2904    0.0000 H   0  0  0  0  0  0  0  0  0  0  0  0
    7.5062    2.8361    0.0000 H   0  0  0  0  0  0  0  0  0  0  0  0
    7.7331    3.6830    0.0000 H   0  0  0  0  0  0  0  0  0  0  0  0
    6.8862    3.9100    0.0000 H   0  0  0  0  0  0  0  0  0  0  0  0
    2.0000    3.9930    0.0000 H   0  0  0  0  0  0  0  0  0  0  0  0
  1 13  1  0  0  0  0
  1 36  1  0  0  0  0
  2 14  2  0  0  0  0
  3 20  1  0  0  0  0
  3 23  1  0  0  0  0
  4 20  2  0  0  0  0
  5 22  1  0  0  0  0
  5 46  1  0  0  0  0
  6 22  2  0  0  0  0
  7 16  2  0  0  0  0
  7 19  1  0  0  0  0
  8  9  1  0  0  0  0
  8 10  1  0  0  0  0
  8 11  1  0  0  0  0
  8 12  1  0  0  0  0
  9 13  1  0  0  0  0
  9 24  1  0  0  0  0
  9 25  1  0  0  0  0
 10 14  1  0  0  0  0
 10 26  1  0  0  0  0
 10 27  1  0  0  0  0
 11 28  1  0  0  0  0
 11 29  1  0  0  0  0
 11 30  1  0  0  0  0
 12 31  1  0  0  0  0
 12 32  1  0  0  0  0
 12 33  1  0  0  0  0
 13 15  2  0  0  0  0
 14 15  1  0  0  0  0
 15 16  1  0  0  0  0
 16 17  1  0  0  0  0
 17 18  1  0  0  0  0
 17 34  1  0  0  0  0
 17 35  1  0  0  0  0
 18 20  1  0  0  0  0
 18 37  1  0  0  0  0
 18 38  1  0  0  0  0
 19 21  1  0  0  0  0
 19 39  1  0  0  0  0
 19 40  1  0  0  0  0
 21 22  1  0  0  0  0
 21 41  1  0  0  0  0
 21 42  1  0  0  0  0
 23 43  1  0  0  0  0
 23 44  1  0  0  0  0
 23 45  1  0  0  0  0
M  END
> <PUBCHEM_COMPOUND_CID>
135526411

> <PUBCHEM_COMPOUND_CANONICALIZED>
1

> <PUBCHEM_CACTVS_COMPLEXITY>
559

> <PUBCHEM_CACTVS_HBOND_ACCEPTOR>
7

> <PUBCHEM_CACTVS_HBOND_DONOR>
2

> <PUBCHEM_CACTVS_ROTATABLE_BOND>
8

> <PUBCHEM_CACTVS_SUBSKEYS>
AAADceB6OAAAAAAAAAAAAAAAAAAAAAAAAAAgAAAAAAAAAAAAAAAAHgAACAAADgzBgAYCCAIABgCoA4DwDAAAAAAgIAAACAEwAFgAABoAAAAAQAAGgAAIAQOIzOCPAAAAAAAAAAAAAAAAAAAAAAAAAAAAAA==

> <PUBCHEM_IUPAC_OPENEYE_NAME>
3-[[1-(2-hydroxy-4,4-dimethyl-6-oxo-cyclohexen-1-yl)-4-methoxy-4-oxo-butylidene]amino]propanoic acid

> <PUBCHEM_IUPAC_CAS_NAME>
3-[[1-(2-hydroxy-4,4-dimethyl-6-oxo-1-cyclohexenyl)-4-methoxy-4-oxobutylidene]amino]propanoic acid

> <PUBCHEM_IUPAC_NAME_MARKUP>
3-[[1-(2-hydroxy-4,4-dimethyl-6-oxocyclohexen-1-yl)-4-methoxy-4-oxobutylidene]amino]propanoic acid

> <PUBCHEM_IUPAC_NAME>
3-[[1-(2-hydroxy-4,4-dimethyl-6-oxocyclohexen-1-yl)-4-methoxy-4-oxobutylidene]amino]propanoic acid

> <PUBCHEM_IUPAC_SYSTEMATIC_NAME>
3-[[1-(4,4-dimethyl-2-oxidanyl-6-oxidanylidene-cyclohexen-1-yl)-4-methoxy-4-oxidanylidene-butylidene]amino]propanoic acid

> <PUBCHEM_IUPAC_TRADITIONAL_NAME>
3-[[1-(2-hydroxy-6-keto-4,4-dimethyl-cyclohexen-1-yl)-4-keto-4-methoxy-butylidene]amino]propionic acid

> <PUBCHEM_IUPAC_INCHI>
InChI=1S/C16H23NO6/c1-16(2)8-11(18)15(12(19)9-16)10(4-5-14(22)23-3)17-7-6-13(20)21/h18H,4-9H2,1-3H3,(H,20,21)

> <PUBCHEM_IUPAC_INCHIKEY>
WGENTFFBHNLHNI-UHFFFAOYSA-N

> <PUBCHEM_XLOGP3_AA>
0.4

> <PUBCHEM_EXACT_MASS>
325.15253745

> <PUBCHEM_MOLECULAR_FORMULA>
C16H23NO6

> <PUBCHEM_MOLECULAR_WEIGHT>
325.36

> <PUBCHEM_OPENEYE_CAN_SMILES>
CC1(CC(=C(C(=O)C1)C(=NCCC(=O)O)CCC(=O)OC)O)C

> <PUBCHEM_OPENEYE_ISO_SMILES>
CC1(CC(=C(C(=O)C1)C(=NCCC(=O)O)CCC(=O)OC)O)C

> <PUBCHEM_CACTVS_TPSA>
113

> <PUBCHEM_MONOISOTOPIC_WEIGHT>
325.15253745

> <PUBCHEM_TOTAL_CHARGE>
0

> <PUBCHEM_HEAVY_ATOM_COUNT>
23

> <PUBCHEM_ATOM_DEF_STEREO_COUNT>
0

> <PUBCHEM_ATOM_UDEF_STEREO_COUNT>
0

> <PUBCHEM_BOND_DEF_STEREO_COUNT>
0

> <PUBCHEM_BOND_UDEF_STEREO_COUNT>
0

> <PUBCHEM_ISOTOPIC_ATOM_COUNT>
0

> <PUBCHEM_COMPONENT_COUNT>
1

> <PUBCHEM_CACTVS_TAUTO_COUNT>
-1

> <PUBCHEM_COORDINATE_TYPE>
1
5
255

$$$$
