 
  -OEChem-10192104322D

 67 66  0     1  0  0  0  0  0999 V2000
    5.4641    3.3100    0.0000 O   0  0  0  0  0  0  0  0  0  0  0  0
    8.9282    3.3100    0.0000 O   0  0  0  0  0  0  0  0  0  0  0  0
    8.0622    4.8100    0.0000 O   0  0  0  0  0  0  0  0  0  0  0  0
   10.6603    3.3100    0.0000 O   0  0  0  0  0  0  0  0  0  0  0  0
    3.7320    3.3100    0.0000 O   0  0  0  0  0  0  0  0  0  0  0  0
    4.5981    4.8100    0.0000 O   0  0  0  0  0  0  0  0  0  0  0  0
    2.8660   -4.1900    0.0000 O   0  0  0  0  0  0  0  0  0  0  0  0
    4.5981   -4.1900    0.0000 O   0  0  0  0  0  0  0  0  0  0  0  0
   12.3923    3.3100    0.0000 O   0  0  0  0  0  0  0  0  0  0  0  0
   11.5263    4.8100    0.0000 O   0  0  0  0  0  0  0  0  0  0  0  0
    7.1962    3.3100    0.0000 C   0  0  3  0  0  0  0  0  0  0  0  0
    7.1962    2.3100    0.0000 C   0  0  0  0  0  0  0  0  0  0  0  0
    6.3301    1.8100    0.0000 C   0  0  0  0  0  0  0  0  0  0  0  0
    6.3301    0.8100    0.0000 C   0  0  0  0  0  0  0  0  0  0  0  0
    5.4641    0.3100    0.0000 C   0  0  0  0  0  0  0  0  0  0  0  0
    6.3301    3.8100    0.0000 C   0  0  3  0  0  0  0  0  0  0  0  0
    5.4641   -0.6900    0.0000 C   0  0  0  0  0  0  0  0  0  0  0  0
    4.5981   -1.1900    0.0000 C   0  0  0  0  0  0  0  0  0  0  0  0
    8.0622    3.8100    0.0000 C   0  0  0  0  0  0  0  0  0  0  0  0
    6.3301    4.8100    0.0000 C   0  0  0  0  0  0  0  0  0  0  0  0
    4.5981   -2.1900    0.0000 C   0  0  0  0  0  0  0  0  0  0  0  0
    3.7320   -2.6900    0.0000 C   0  0  0  0  0  0  0  0  0  0  0  0
    9.7942    3.8100    0.0000 C   0  0  3  0  0  0  0  0  0  0  0  0
    4.5981    3.8100    0.0000 C   0  0  0  0  0  0  0  0  0  0  0  0
    3.7320   -3.6900    0.0000 C   0  0  0  0  0  0  0  0  0  0  0  0
    9.7942    4.8100    0.0000 C   0  0  0  0  0  0  0  0  0  0  0  0
    2.8660    3.8100    0.0000 C   0  0  0  0  0  0  0  0  0  0  0  0
   11.5263    3.8100    0.0000 C   0  0  0  0  0  0  0  0  0  0  0  0
    2.0000    3.3100    0.0000 C   0  0  0  0  0  0  0  0  0  0  0  0
   13.2583    3.8100    0.0000 C   0  0  0  0  0  0  0  0  0  0  0  0
   14.1244    3.3100    0.0000 C   0  0  0  0  0  0  0  0  0  0  0  0
    6.6592    3.0000    0.0000 H   0  0  0  0  0  0  0  0  0  0  0  0
    7.4082    1.7274    0.0000 H   0  0  0  0  0  0  0  0  0  0  0  0
    7.8067    2.4177    0.0000 H   0  0  0  0  0  0  0  0  0  0  0  0
    6.1181    2.3926    0.0000 H   0  0  0  0  0  0  0  0  0  0  0  0
    5.7196    1.7023    0.0000 H   0  0  0  0  0  0  0  0  0  0  0  0
    6.5422    0.2274    0.0000 H   0  0  0  0  0  0  0  0  0  0  0  0
    6.9407    0.9177    0.0000 H   0  0  0  0  0  0  0  0  0  0  0  0
    5.2520    0.8926    0.0000 H   0  0  0  0  0  0  0  0  0  0  0  0
    4.8535    0.2023    0.0000 H   0  0  0  0  0  0  0  0  0  0  0  0
    5.7932    4.1200    0.0000 H   0  0  0  0  0  0  0  0  0  0  0  0
    5.6762   -1.2726    0.0000 H   0  0  0  0  0  0  0  0  0  0  0  0
    6.0747   -0.5823    0.0000 H   0  0  0  0  0  0  0  0  0  0  0  0
    4.3860   -0.6074    0.0000 H   0  0  0  0  0  0  0  0  0  0  0  0
    3.9875   -1.2977    0.0000 H   0  0  0  0  0  0  0  0  0  0  0  0
    6.9501    4.8100    0.0000 H   0  0  0  0  0  0  0  0  0  0  0  0
    6.3301    5.4300    0.0000 H   0  0  0  0  0  0  0  0  0  0  0  0
    5.7101    4.8100    0.0000 H   0  0  0  0  0  0  0  0  0  0  0  0
    4.8101   -2.7726    0.0000 H   0  0  0  0  0  0  0  0  0  0  0  0
    5.2087   -2.0823    0.0000 H   0  0  0  0  0  0  0  0  0  0  0  0
    3.5200   -2.1074    0.0000 H   0  0  0  0  0  0  0  0  0  0  0  0
    3.1215   -2.7977    0.0000 H   0  0  0  0  0  0  0  0  0  0  0  0
    9.2573    4.1200    0.0000 H   0  0  0  0  0  0  0  0  0  0  0  0
   10.4142    4.8100    0.0000 H   0  0  0  0  0  0  0  0  0  0  0  0
    9.7942    5.4300    0.0000 H   0  0  0  0  0  0  0  0  0  0  0  0
    9.1742    4.8100    0.0000 H   0  0  0  0  0  0  0  0  0  0  0  0
    3.2646    4.2850    0.0000 H   0  0  0  0  0  0  0  0  0  0  0  0
    2.4675    4.2850    0.0000 H   0  0  0  0  0  0  0  0  0  0  0  0
    2.8660   -4.8100    0.0000 H   0  0  0  0  0  0  0  0  0  0  0  0
    1.6900    3.8469    0.0000 H   0  0  0  0  0  0  0  0  0  0  0  0
    1.4631    3.0000    0.0000 H   0  0  0  0  0  0  0  0  0  0  0  0
    2.3100    2.7731    0.0000 H   0  0  0  0  0  0  0  0  0  0  0  0
   13.6569    4.2850    0.0000 H   0  0  0  0  0  0  0  0  0  0  0  0
   12.8598    4.2850    0.0000 H   0  0  0  0  0  0  0  0  0  0  0  0
   13.8144    2.7731    0.0000 H   0  0  0  0  0  0  0  0  0  0  0  0
   14.6613    3.0000    0.0000 H   0  0  0  0  0  0  0  0  0  0  0  0
   14.4344    3.8469    0.0000 H   0  0  0  0  0  0  0  0  0  0  0  0
  1 16  1  0  0  0  0
  1 24  1  0  0  0  0
  2 19  1  0  0  0  0
  2 23  1  0  0  0  0
  3 19  2  0  0  0  0
  4 23  1  0  0  0  0
  4 28  1  0  0  0  0
  5 24  1  0  0  0  0
  5 27  1  0  0  0  0
  6 24  2  0  0  0  0
  7 25  1  0  0  0  0
  7 59  1  0  0  0  0
  8 25  2  0  0  0  0
  9 28  1  0  0  0  0
  9 30  1  0  0  0  0
 10 28  2  0  0  0  0
 11 12  1  0  0  0  0
 11 16  1  0  0  0  0
 11 19  1  0  0  0  0
 11 32  1  0  0  0  0
 12 13  1  0  0  0  0
 12 33  1  0  0  0  0
 12 34  1  0  0  0  0
 13 14  1  0  0  0  0
 13 35  1  0  0  0  0
 13 36  1  0  0  0  0
 14 15  1  0  0  0  0
 14 37  1  0  0  0  0
 14 38  1  0  0  0  0
 15 17  1  0  0  0  0
 15 39  1  0  0  0  0
 15 40  1  0  0  0  0
 16 20  1  0  0  0  0
 16 41  1  0  0  0  0
 17 18  1  0  0  0  0
 17 42  1  0  0  0  0
 17 43  1  0  0  0  0
 18 21  1  0  0  0  0
 18 44  1  0  0  0  0
 18 45  1  0  0  0  0
 20 46  1  0  0  0  0
 20 47  1  0  0  0  0
 20 48  1  0  0  0  0
 21 22  1  0  0  0  0
 21 49  1  0  0  0  0
 21 50  1  0  0  0  0
 22 25  1  0  0  0  0
 22 51  1  0  0  0  0
 22 52  1  0  0  0  0
 23 26  1  0  0  0  0
 23 53  1  0  0  0  0
 26 54  1  0  0  0  0
 26 55  1  0  0  0  0
 26 56  1  0  0  0  0
 27 29  1  0  0  0  0
 27 57  1  0  0  0  0
 27 58  1  0  0  0  0
 29 60  1  0  0  0  0
 29 61  1  0  0  0  0
 29 62  1  0  0  0  0
 30 31  1  0  0  0  0
 30 63  1  0  0  0  0
 30 64  1  0  0  0  0
 31 65  1  0  0  0  0
 31 66  1  0  0  0  0
 31 67  1  0  0  0  0
M  END
> <PUBCHEM_COMPOUND_CID>
87662275

> <PUBCHEM_COMPOUND_CANONICALIZED>
1

> <PUBCHEM_CACTVS_COMPLEXITY>
548

> <PUBCHEM_CACTVS_HBOND_ACCEPTOR>
10

> <PUBCHEM_CACTVS_HBOND_DONOR>
1

> <PUBCHEM_CACTVS_ROTATABLE_BOND>
21

> <PUBCHEM_CACTVS_SUBSKEYS>
AAADcfB4PAAAAAAAAAAAAAAAAAAAAAAAAAAAAAAAAAAAAAAAAAAAGgAACAAADRSwgAMCCAAABgAIAACQCAAAAAAAAAAAAAEAAAAQABYAAAAiQAAFIAAEAAGIyOCOAAAAAAAAAAAAAAAAAAAAAAAAAAAAAA==

> <PUBCHEM_IUPAC_OPENEYE_NAME>
11-ethoxycarbonyloxy-10-(1-ethoxycarbonyloxyethoxycarbonyl)dodecanoic acid

> <PUBCHEM_IUPAC_CAS_NAME>
11-ethoxycarbonyloxy-10-[1-ethoxycarbonyloxyethoxy(oxo)methyl]dodecanoic acid

> <PUBCHEM_IUPAC_NAME_MARKUP>
11-ethoxycarbonyloxy-10-(1-ethoxycarbonyloxyethoxycarbonyl)dodecanoic acid

> <PUBCHEM_IUPAC_NAME>
11-ethoxycarbonyloxy-10-(1-ethoxycarbonyloxyethoxycarbonyl)dodecanoic acid

> <PUBCHEM_IUPAC_SYSTEMATIC_NAME>
11-ethoxycarbonyloxy-10-(1-ethoxycarbonyloxyethoxycarbonyl)dodecanoic acid

> <PUBCHEM_IUPAC_TRADITIONAL_NAME>
11-carbethoxyoxy-10-(1-carbethoxyoxyethoxycarbonyl)lauric acid

> <PUBCHEM_IUPAC_INCHI>
InChI=1S/C21H36O10/c1-5-27-20(25)29-15(3)17(13-11-9-7-8-10-12-14-18(22)23)19(24)30-16(4)31-21(26)28-6-2/h15-17H,5-14H2,1-4H3,(H,22,23)

> <PUBCHEM_IUPAC_INCHIKEY>
JOSWLAISICBXMS-UHFFFAOYSA-N

> <PUBCHEM_XLOGP3_AA>
5.3

> <PUBCHEM_EXACT_MASS>
448.23084734

> <PUBCHEM_MOLECULAR_FORMULA>
C21H36O10

> <PUBCHEM_MOLECULAR_WEIGHT>
448.5

> <PUBCHEM_OPENEYE_CAN_SMILES>
CCOC(=O)OC(C)C(CCCCCCCCC(=O)O)C(=O)OC(C)OC(=O)OCC

> <PUBCHEM_OPENEYE_ISO_SMILES>
CCOC(=O)OC(C)C(CCCCCCCCC(=O)O)C(=O)OC(C)OC(=O)OCC

> <PUBCHEM_CACTVS_TPSA>
135

> <PUBCHEM_MONOISOTOPIC_WEIGHT>
448.23084734

> <PUBCHEM_TOTAL_CHARGE>
0

> <PUBCHEM_HEAVY_ATOM_COUNT>
31

> <PUBCHEM_ATOM_DEF_STEREO_COUNT>
0

> <PUBCHEM_ATOM_UDEF_STEREO_COUNT>
3

> <PUBCHEM_BOND_DEF_STEREO_COUNT>
0

> <PUBCHEM_BOND_UDEF_STEREO_COUNT>
0

> <PUBCHEM_ISOTOPIC_ATOM_COUNT>
0

> <PUBCHEM_COMPONENT_COUNT>
1

> <PUBCHEM_CACTVS_TAUTO_COUNT>
-1

> <PUBCHEM_COORDINATE_TYPE>
1
5
255

> <PUBCHEM_BONDANNOTATIONS>
11  12  3
16  20  3
23  26  3

$$$$
