 
  -OEChem-10192104052D

 30 32  0     1  0  0  0  0  0999 V2000
    4.4026    0.2369    0.0000 O   0  0  0  0  0  0  0  0  0  0  0  0
    6.7523    1.3206    0.0000 O   0  0  0  0  0  0  0  0  0  0  0  0
    5.3548    2.7384    0.0000 O   0  0  0  0  0  0  0  0  0  0  0  0
    4.6783   -1.5237    0.0000 N   0  0  0  0  0  0  0  0  0  0  0  0
    5.2619   -2.3284    0.0000 N   0  0  0  0  0  0  0  0  0  0  0  0
    4.6783   -3.1332    0.0000 N   0  0  0  0  0  0  0  0  0  0  0  0
    2.8660   -3.3284    0.0000 N   0  0  0  0  0  0  0  0  0  0  0  0
    2.0000   -1.8284    0.0000 N   0  0  0  0  0  0  0  0  0  0  0  0
    2.8660   -0.3284    0.0000 N   0  0  0  0  0  0  0  0  0  0  0  0
    5.9422    0.7342    0.0000 C   0  0  1  0  0  0  0  0  0  0  0  0
    4.9889   -0.5732    0.0000 C   0  0  1  0  0  0  0  0  0  0  0  0
    5.9405   -0.2658    0.0000 C   0  0  0  0  0  0  0  0  0  0  0  0
    4.9917    1.0449    0.0000 C   0  0  1  0  0  0  0  0  0  0  0  0
    4.6844    1.9964    0.0000 C   0  0  0  0  0  0  0  0  0  0  0  0
    3.7320   -1.8284    0.0000 C   0  0  0  0  0  0  0  0  0  0  0  0
    3.7320   -2.8284    0.0000 C   0  0  0  0  0  0  0  0  0  0  0  0
    2.8660   -1.3284    0.0000 C   0  0  0  0  0  0  0  0  0  0  0  0
    2.0000   -2.8284    0.0000 C   0  0  0  0  0  0  0  0  0  0  0  0
    6.4942    0.4518    0.0000 H   0  0  0  0  0  0  0  0  0  0  0  0
    5.4266   -1.0123    0.0000 H   0  0  0  0  0  0  0  0  0  0  0  0
    6.0684   -0.8725    0.0000 H   0  0  0  0  0  0  0  0  0  0  0  0
    6.5572   -0.2021    0.0000 H   0  0  0  0  0  0  0  0  0  0  0  0
    4.3795    1.1429    0.0000 H   0  0  0  0  0  0  0  0  0  0  0  0
    4.3035    2.4857    0.0000 H   0  0  0  0  0  0  0  0  0  0  0  0
    4.1364    1.7063    0.0000 H   0  0  0  0  0  0  0  0  0  0  0  0
    7.3182    1.0674    0.0000 H   0  0  0  0  0  0  0  0  0  0  0  0
    5.1642    3.3284    0.0000 H   0  0  0  0  0  0  0  0  0  0  0  0
    2.3291   -0.0184    0.0000 H   0  0  0  0  0  0  0  0  0  0  0  0
    3.4030   -0.0184    0.0000 H   0  0  0  0  0  0  0  0  0  0  0  0
    1.4631   -3.1384    0.0000 H   0  0  0  0  0  0  0  0  0  0  0  0
  1 11  1  0  0  0  0
  1 13  1  0  0  0  0
 10  2  1  1  0  0  0
  2 26  1  0  0  0  0
  3 14  1  0  0  0  0
  3 27  1  0  0  0  0
  4  5  1  0  0  0  0
 11  4  1  6  0  0  0
  4 15  1  0  0  0  0
  5  6  2  0  0  0  0
  6 16  1  0  0  0  0
  7 16  2  0  0  0  0
  7 18  1  0  0  0  0
  8 17  1  0  0  0  0
  8 18  2  0  0  0  0
  9 17  1  0  0  0  0
  9 28  1  0  0  0  0
  9 29  1  0  0  0  0
 10 12  1  0  0  0  0
 10 13  1  0  0  0  0
 10 19  1  0  0  0  0
 11 12  1  0  0  0  0
 11 20  1  0  0  0  0
 12 21  1  0  0  0  0
 12 22  1  0  0  0  0
 13 14  1  6  0  0  0
 13 23  1  0  0  0  0
 14 24  1  0  0  0  0
 14 25  1  0  0  0  0
 15 16  1  0  0  0  0
 15 17  2  0  0  0  0
 18 30  1  0  0  0  0
M  END
> <PUBCHEM_COMPOUND_CID>
14443999

> <PUBCHEM_COMPOUND_CANONICALIZED>
1

> <PUBCHEM_CACTVS_COMPLEXITY>
308

> <PUBCHEM_CACTVS_HBOND_ACCEPTOR>
8

> <PUBCHEM_CACTVS_HBOND_DONOR>
3

> <PUBCHEM_CACTVS_ROTATABLE_BOND>
2

> <PUBCHEM_CACTVS_SUBSKEYS>
AAADccBzsAAAAAAAAAAAAAAAAAAAAWJAAAAsAAAAAAAAAFgB+AAAHgAYCAAACBzhlwYF8L5IFgCiAQZhZACAhC8RkKAVUCAoVBCBWAJAyEAeRAgPAALDACCwMAIAAAAAAAAAAAAAAAAAAAAAAAAAAAAAAA==

> <PUBCHEM_IUPAC_OPENEYE_NAME>
(2R,3S,5R)-5-(7-aminotriazolo[4,5-d]pyrimidin-1-yl)-2-(hydroxymethyl)tetrahydrofuran-3-ol

> <PUBCHEM_IUPAC_CAS_NAME>
(2R,3S,5R)-5-(7-amino-1-triazolo[4,5-d]pyrimidinyl)-2-(hydroxymethyl)-3-oxolanol

> <PUBCHEM_IUPAC_NAME_MARKUP>
(2<I>R</I>,3<I>S</I>,5<I>R</I>)-5-(7-aminotriazolo[4,5-d]pyrimidin-1-yl)-2-(hydroxymethyl)oxolan-3-ol

> <PUBCHEM_IUPAC_NAME>
(2R,3S,5R)-5-(7-aminotriazolo[4,5-d]pyrimidin-1-yl)-2-(hydroxymethyl)oxolan-3-ol

> <PUBCHEM_IUPAC_SYSTEMATIC_NAME>
(2R,3S,5R)-5-(7-azanyl-[1,2,3]triazolo[4,5-d]pyrimidin-1-yl)-2-(hydroxymethyl)oxolan-3-ol

> <PUBCHEM_IUPAC_TRADITIONAL_NAME>
(2R,3S,5R)-5-(7-aminotriazolo[4,5-d]pyrimidin-1-yl)-2-methylol-tetrahydrofuran-3-ol

> <PUBCHEM_IUPAC_INCHI>
InChI=1S/C9H12N6O3/c10-8-7-9(12-3-11-8)13-14-15(7)6-1-4(17)5(2-16)18-6/h3-6,16-17H,1-2H2,(H2,10,11,12)/t4-,5+,6+/m0/s1

> <PUBCHEM_IUPAC_INCHIKEY>
BENNEHBJWDOHBK-KVQBGUIXSA-N

> <PUBCHEM_XLOGP3_AA>
-1.3

> <PUBCHEM_EXACT_MASS>
252.09708827

> <PUBCHEM_MOLECULAR_FORMULA>
C9H12N6O3

> <PUBCHEM_MOLECULAR_WEIGHT>
252.23

> <PUBCHEM_OPENEYE_CAN_SMILES>
C1C(C(OC1N2C3=C(N=CN=C3N=N2)N)CO)O

> <PUBCHEM_OPENEYE_ISO_SMILES>
C1[C@@H]([C@H](O[C@H]1N2C3=C(N=CN=C3N=N2)N)CO)O

> <PUBCHEM_CACTVS_TPSA>
132

> <PUBCHEM_MONOISOTOPIC_WEIGHT>
252.09708827

> <PUBCHEM_TOTAL_CHARGE>
0

> <PUBCHEM_HEAVY_ATOM_COUNT>
18

> <PUBCHEM_ATOM_DEF_STEREO_COUNT>
3

> <PUBCHEM_ATOM_UDEF_STEREO_COUNT>
0

> <PUBCHEM_BOND_DEF_STEREO_COUNT>
0

> <PUBCHEM_BOND_UDEF_STEREO_COUNT>
0

> <PUBCHEM_ISOTOPIC_ATOM_COUNT>
0

> <PUBCHEM_COMPONENT_COUNT>
1

> <PUBCHEM_CACTVS_TAUTO_COUNT>
-1

> <PUBCHEM_COORDINATE_TYPE>
1
5
255

> <PUBCHEM_BONDANNOTATIONS>
13  14  6
15  16  8
15  17  8
10  2  5
11  4  6
4  15  8
4  5  8
5  6  8
6  16  8
7  16  8
7  18  8
8  17  8
8  18  8

$$$$
