 
  -OEChem-10192104432D

 66 67  0     1  0  0  0  0  0999 V2000
   14.8417   -3.8162    0.0000 S   0  0  0  0  0  0  0  0  0  0  0  0
    2.9511    3.7097    0.0000 S   0  0  0  0  0  0  0  0  0  0  0  0
   15.9295   -1.4683    0.0000 O   0  0  0  0  0  0  0  0  0  0  0  0
    5.5202    4.0187    0.0000 O   0  0  0  0  0  0  0  0  0  0  0  0
   15.4295   -4.6252    0.0000 O   0  0  0  0  0  0  0  0  0  0  0  0
   14.2539   -4.6252    0.0000 O   0  0  0  0  0  0  0  0  0  0  0  0
    2.3633    4.5187    0.0000 O   0  0  0  0  0  0  0  0  0  0  0  0
    2.0000    3.4007    0.0000 O   0  0  0  0  0  0  0  0  0  0  0  0
   12.3527   -2.4864    0.0000 O   0  0  0  0  0  0  0  0  0  0  0  0
    6.2491    2.9677    0.0000 O   0  0  0  0  0  0  0  0  0  0  0  0
   13.7539   -1.4683    0.0000 N   0  0  0  0  0  0  0  0  0  0  0  0
    4.8479    1.9496    0.0000 N   0  0  0  0  0  0  0  0  0  0  0  0
   12.1716   -0.7638    0.0000 N   0  0  0  0  0  0  0  0  0  0  0  0
    6.4302    1.2451    0.0000 N   0  0  0  0  0  0  0  0  0  0  0  0
   14.3417   -2.2773    0.0000 C   0  0  3  0  0  0  0  0  0  0  0  0
    4.2601    2.7586    0.0000 C   0  0  3  0  0  0  0  0  0  0  0  0
   15.3417   -2.2773    0.0000 C   0  0  3  0  0  0  0  0  0  0  0  0
    4.5691    3.7097    0.0000 C   0  0  3  0  0  0  0  0  0  0  0  0
   14.0327   -3.2284    0.0000 C   0  0  0  0  0  0  0  0  0  0  0  0
    3.2601    2.7586    0.0000 C   0  0  0  0  0  0  0  0  0  0  0  0
   15.6507   -3.2284    0.0000 C   0  0  0  0  0  0  0  0  0  0  0  0
    3.7601    4.2975    0.0000 C   0  0  0  0  0  0  0  0  0  0  0  0
   14.1607   -0.5547    0.0000 C   0  0  0  0  0  0  0  0  0  0  0  0
    4.4411    1.0361    0.0000 C   0  0  0  0  0  0  0  0  0  0  0  0
   12.7594   -1.5728    0.0000 C   0  0  0  0  0  0  0  0  0  0  0  0
    5.8424    2.0542    0.0000 C   0  0  0  0  0  0  0  0  0  0  0  0
   11.1771   -0.8683    0.0000 C   0  0  0  0  0  0  0  0  0  0  0  0
    7.4247    1.3497    0.0000 C   0  0  0  0  0  0  0  0  0  0  0  0
   10.5893   -0.0593    0.0000 C   0  0  0  0  0  0  0  0  0  0  0  0
    8.0125    0.5406    0.0000 C   0  0  0  0  0  0  0  0  0  0  0  0
    9.5948   -0.1638    0.0000 C   0  0  0  0  0  0  0  0  0  0  0  0
    9.0070    0.6452    0.0000 C   0  0  0  0  0  0  0  0  0  0  0  0
   13.7293   -2.3743    0.0000 H   0  0  0  0  0  0  0  0  0  0  0  0
    4.8724    2.8556    0.0000 H   0  0  0  0  0  0  0  0  0  0  0  0
   15.0602   -1.7249    0.0000 H   0  0  0  0  0  0  0  0  0  0  0  0
    4.6661    4.3221    0.0000 H   0  0  0  0  0  0  0  0  0  0  0  0
   13.4663   -2.9762    0.0000 H   0  0  0  0  0  0  0  0  0  0  0  0
   13.7227   -3.7653    0.0000 H   0  0  0  0  0  0  0  0  0  0  0  0
    2.6536    2.6297    0.0000 H   0  0  0  0  0  0  0  0  0  0  0  0
    3.3249    2.1420    0.0000 H   0  0  0  0  0  0  0  0  0  0  0  0
   15.9607   -3.7653    0.0000 H   0  0  0  0  0  0  0  0  0  0  0  0
   16.2171   -2.9762    0.0000 H   0  0  0  0  0  0  0  0  0  0  0  0
    4.1749    4.7582    0.0000 H   0  0  0  0  0  0  0  0  0  0  0  0
    3.3452    4.7582    0.0000 H   0  0  0  0  0  0  0  0  0  0  0  0
   16.5461   -1.5331    0.0000 H   0  0  0  0  0  0  0  0  0  0  0  0
    5.6490    4.6252    0.0000 H   0  0  0  0  0  0  0  0  0  0  0  0
   14.7271   -0.8069    0.0000 H   0  0  0  0  0  0  0  0  0  0  0  0
   14.4128    0.0117    0.0000 H   0  0  0  0  0  0  0  0  0  0  0  0
   13.5943   -0.3026    0.0000 H   0  0  0  0  0  0  0  0  0  0  0  0
    3.8747    1.2883    0.0000 H   0  0  0  0  0  0  0  0  0  0  0  0
    4.1890    0.4697    0.0000 H   0  0  0  0  0  0  0  0  0  0  0  0
    5.0075    0.7839    0.0000 H   0  0  0  0  0  0  0  0  0  0  0  0
   12.4238   -0.1974    0.0000 H   0  0  0  0  0  0  0  0  0  0  0  0
    6.1780    0.6787    0.0000 H   0  0  0  0  0  0  0  0  0  0  0  0
   10.6198   -1.1401    0.0000 H   0  0  0  0  0  0  0  0  0  0  0  0
   11.3480   -1.4643    0.0000 H   0  0  0  0  0  0  0  0  0  0  0  0
    7.9819    1.6214    0.0000 H   0  0  0  0  0  0  0  0  0  0  0  0
    7.2538    1.9456    0.0000 H   0  0  0  0  0  0  0  0  0  0  0  0
   11.1466    0.2125    0.0000 H   0  0  0  0  0  0  0  0  0  0  0  0
   10.4184    0.5367    0.0000 H   0  0  0  0  0  0  0  0  0  0  0  0
    7.4552    0.2689    0.0000 H   0  0  0  0  0  0  0  0  0  0  0  0
    8.1834   -0.0553    0.0000 H   0  0  0  0  0  0  0  0  0  0  0  0
    9.0375   -0.4356    0.0000 H   0  0  0  0  0  0  0  0  0  0  0  0
    9.7657   -0.7598    0.0000 H   0  0  0  0  0  0  0  0  0  0  0  0
    9.5642    0.9170    0.0000 H   0  0  0  0  0  0  0  0  0  0  0  0
    8.8361    1.2412    0.0000 H   0  0  0  0  0  0  0  0  0  0  0  0
  1  5  2  0  0  0  0
  1  6  2  0  0  0  0
  1 19  1  0  0  0  0
  1 21  1  0  0  0  0
  2  7  2  0  0  0  0
  2  8  2  0  0  0  0
  2 20  1  0  0  0  0
  2 22  1  0  0  0  0
  3 17  1  0  0  0  0
  3 45  1  0  0  0  0
  4 18  1  0  0  0  0
  4 46  1  0  0  0  0
  9 25  2  0  0  0  0
 10 26  2  0  0  0  0
 11 15  1  0  0  0  0
 11 23  1  0  0  0  0
 11 25  1  0  0  0  0
 12 16  1  0  0  0  0
 12 24  1  0  0  0  0
 12 26  1  0  0  0  0
 13 25  1  0  0  0  0
 13 27  1  0  0  0  0
 13 53  1  0  0  0  0
 14 26  1  0  0  0  0
 14 28  1  0  0  0  0
 14 54  1  0  0  0  0
 15 17  1  0  0  0  0
 15 19  1  0  0  0  0
 15 33  1  0  0  0  0
 16 18  1  0  0  0  0
 16 20  1  0  0  0  0
 16 34  1  0  0  0  0
 17 21  1  0  0  0  0
 17 35  1  0  0  0  0
 18 22  1  0  0  0  0
 18 36  1  0  0  0  0
 19 37  1  0  0  0  0
 19 38  1  0  0  0  0
 20 39  1  0  0  0  0
 20 40  1  0  0  0  0
 21 41  1  0  0  0  0
 21 42  1  0  0  0  0
 22 43  1  0  0  0  0
 22 44  1  0  0  0  0
 23 47  1  0  0  0  0
 23 48  1  0  0  0  0
 23 49  1  0  0  0  0
 24 50  1  0  0  0  0
 24 51  1  0  0  0  0
 24 52  1  0  0  0  0
 27 29  1  0  0  0  0
 27 55  1  0  0  0  0
 27 56  1  0  0  0  0
 28 30  1  0  0  0  0
 28 57  1  0  0  0  0
 28 58  1  0  0  0  0
 29 31  1  0  0  0  0
 29 59  1  0  0  0  0
 29 60  1  0  0  0  0
 30 32  1  0  0  0  0
 30 61  1  0  0  0  0
 30 62  1  0  0  0  0
 31 32  1  0  0  0  0
 31 63  1  0  0  0  0
 31 64  1  0  0  0  0
 32 65  1  0  0  0  0
 32 66  1  0  0  0  0
M  END
> <PUBCHEM_COMPOUND_CID>
3705743

> <PUBCHEM_COMPOUND_CANONICALIZED>
1

> <PUBCHEM_CACTVS_COMPLEXITY>
796

> <PUBCHEM_CACTVS_HBOND_ACCEPTOR>
8

> <PUBCHEM_CACTVS_HBOND_DONOR>
4

> <PUBCHEM_CACTVS_ROTATABLE_BOND>
9

> <PUBCHEM_CACTVS_SUBSKEYS>
AAADcfB7vABgAAAAAAAAAAAAAAAAASJAAAAAAAAAAAAAAAAAAAAAHgQQCAAACDzlwAaDAAPAAgoIAAAAEHBAAAAAABAAAIAIAACCEAIggAAEQAAIFgIwAAEQAAAAAAAAAAAAAAAAAAAAAAAAAAAAAAAAAA==

> <PUBCHEM_IUPAC_OPENEYE_NAME>
1-(4-hydroxy-1,1-dioxo-thiolan-3-yl)-3-[6-[[(4-hydroxy-1,1-dioxo-thiolan-3-yl)-methyl-carbamoyl]amino]hexyl]-1-methyl-urea

> <PUBCHEM_IUPAC_CAS_NAME>
1-(4-hydroxy-1,1-dioxo-3-thiolanyl)-3-[6-[[[(4-hydroxy-1,1-dioxo-3-thiolanyl)-methylamino]-oxomethyl]amino]hexyl]-1-methylurea

> <PUBCHEM_IUPAC_NAME_MARKUP>
1-(4-hydroxy-1,1-dioxothiolan-3-yl)-3-[6-[[(4-hydroxy-1,1-dioxothiolan-3-yl)-methylcarbamoyl]amino]hexyl]-1-methylurea

> <PUBCHEM_IUPAC_NAME>
1-(4-hydroxy-1,1-dioxothiolan-3-yl)-3-[6-[[(4-hydroxy-1,1-dioxothiolan-3-yl)-methylcarbamoyl]amino]hexyl]-1-methylurea

> <PUBCHEM_IUPAC_SYSTEMATIC_NAME>
1-methyl-3-[6-[[methyl-[4-oxidanyl-1,1-bis(oxidanylidene)thiolan-3-yl]carbamoyl]amino]hexyl]-1-[4-oxidanyl-1,1-bis(oxidanylidene)thiolan-3-yl]urea

> <PUBCHEM_IUPAC_TRADITIONAL_NAME>
1-(4-hydroxy-1,1-diketo-thiolan-3-yl)-3-[6-[[(4-hydroxy-1,1-diketo-thiolan-3-yl)-methyl-carbamoyl]amino]hexyl]-1-methyl-urea

> <PUBCHEM_IUPAC_INCHI>
InChI=1S/C18H34N4O8S2/c1-21(13-9-31(27,28)11-15(13)23)17(25)19-7-5-3-4-6-8-20-18(26)22(2)14-10-32(29,30)12-16(14)24/h13-16,23-24H,3-12H2,1-2H3,(H,19,25)(H,20,26)

> <PUBCHEM_IUPAC_INCHIKEY>
LFZFLPJSKBVLEY-UHFFFAOYSA-N

> <PUBCHEM_XLOGP3_AA>
-2.5

> <PUBCHEM_EXACT_MASS>
498.18180640

> <PUBCHEM_MOLECULAR_FORMULA>
C18H34N4O8S2

> <PUBCHEM_MOLECULAR_WEIGHT>
498.6

> <PUBCHEM_OPENEYE_CAN_SMILES>
CN(C1CS(=O)(=O)CC1O)C(=O)NCCCCCCNC(=O)N(C)C2CS(=O)(=O)CC2O

> <PUBCHEM_OPENEYE_ISO_SMILES>
CN(C1CS(=O)(=O)CC1O)C(=O)NCCCCCCNC(=O)N(C)C2CS(=O)(=O)CC2O

> <PUBCHEM_CACTVS_TPSA>
190

> <PUBCHEM_MONOISOTOPIC_WEIGHT>
498.18180640

> <PUBCHEM_TOTAL_CHARGE>
0

> <PUBCHEM_HEAVY_ATOM_COUNT>
32

> <PUBCHEM_ATOM_DEF_STEREO_COUNT>
0

> <PUBCHEM_ATOM_UDEF_STEREO_COUNT>
4

> <PUBCHEM_BOND_DEF_STEREO_COUNT>
0

> <PUBCHEM_BOND_UDEF_STEREO_COUNT>
0

> <PUBCHEM_ISOTOPIC_ATOM_COUNT>
0

> <PUBCHEM_COMPONENT_COUNT>
1

> <PUBCHEM_CACTVS_TAUTO_COUNT>
-1

> <PUBCHEM_COORDINATE_TYPE>
1
5
255

> <PUBCHEM_BONDANNOTATIONS>
15  11  3
16  12  3
17  3  3
18  4  3

$$$$
