 
  -OEChem-10192104012D

 38 37  0     1  0  0  0  0  0999 V2000
    2.8660   -1.5670    0.0000 S   0  0  0  0  0  0  0  0  0  0  0  0
    5.4641   -1.0670    0.0000 P   0  0  3  0  0  0  0  0  0  0  0  0
    4.9641   -0.2010    0.0000 O   0  0  0  0  0  0  0  0  0  0  0  0
    5.9641   -1.9330    0.0000 O   0  0  0  0  0  0  0  0  0  0  0  0
    8.0622   -0.5670    0.0000 O   0  0  0  0  0  0  0  0  0  0  0  0
    2.3660   -0.7010    0.0000 O   0  0  0  0  0  0  0  0  0  0  0  0
    3.3660   -2.4330    0.0000 O   0  0  0  0  0  0  0  0  0  0  0  0
    7.1962   -2.0670    0.0000 O   0  0  0  0  0  0  0  0  0  0  0  0
    7.1962    1.9330    0.0000 O   0  0  0  0  0  0  0  0  0  0  0  0
    8.0622    0.4330    0.0000 O   0  0  0  0  0  0  0  0  0  0  0  0
    3.7320   -1.0670    0.0000 N   0  0  3  0  0  0  0  0  0  0  0  0
    6.3301   -0.5670    0.0000 C   0  0  2  0  0  0  0  0  0  0  0  0
    4.5981   -1.5670    0.0000 C   0  0  0  0  0  0  0  0  0  0  0  0
    6.3301    0.4330    0.0000 C   0  0  0  0  0  0  0  0  0  0  0  0
    7.1962   -1.0670    0.0000 C   0  0  0  0  0  0  0  0  0  0  0  0
    3.7320   -0.0670    0.0000 C   0  0  0  0  0  0  0  0  0  0  0  0
    7.1962    0.9330    0.0000 C   0  0  0  0  0  0  0  0  0  0  0  0
    2.0000   -2.0670    0.0000 C   0  0  0  0  0  0  0  0  0  0  0  0
    8.9282   -1.0670    0.0000 C   0  0  0  0  0  0  0  0  0  0  0  0
    8.0622    2.4330    0.0000 C   0  0  0  0  0  0  0  0  0  0  0  0
    5.7932   -0.2570    0.0000 H   0  0  0  0  0  0  0  0  0  0  0  0
    4.1996   -2.0419    0.0000 H   0  0  0  0  0  0  0  0  0  0  0  0
    4.9966   -2.0419    0.0000 H   0  0  0  0  0  0  0  0  0  0  0  0
    6.1181    1.0156    0.0000 H   0  0  0  0  0  0  0  0  0  0  0  0
    5.7196    0.3254    0.0000 H   0  0  0  0  0  0  0  0  0  0  0  0
    4.3520   -0.0670    0.0000 H   0  0  0  0  0  0  0  0  0  0  0  0
    3.7320    0.5530    0.0000 H   0  0  0  0  0  0  0  0  0  0  0  0
    3.1120   -0.0670    0.0000 H   0  0  0  0  0  0  0  0  0  0  0  0
    4.3441   -0.2010    0.0000 H   0  0  0  0  0  0  0  0  0  0  0  0
    1.6900   -1.5300    0.0000 H   0  0  0  0  0  0  0  0  0  0  0  0
    1.4631   -2.3770    0.0000 H   0  0  0  0  0  0  0  0  0  0  0  0
    2.3100   -2.6039    0.0000 H   0  0  0  0  0  0  0  0  0  0  0  0
    8.6182   -1.6039    0.0000 H   0  0  0  0  0  0  0  0  0  0  0  0
    9.4651   -1.3770    0.0000 H   0  0  0  0  0  0  0  0  0  0  0  0
    9.2382   -0.5301    0.0000 H   0  0  0  0  0  0  0  0  0  0  0  0
    8.3722    1.8961    0.0000 H   0  0  0  0  0  0  0  0  0  0  0  0
    8.5991    2.7430    0.0000 H   0  0  0  0  0  0  0  0  0  0  0  0
    7.7522    2.9700    0.0000 H   0  0  0  0  0  0  0  0  0  0  0  0
  1  6  2  0  0  0  0
  1  7  2  0  0  0  0
  1 11  1  0  0  0  0
  1 18  1  0  0  0  0
  2  3  1  0  0  0  0
  2  4  2  0  0  0  0
  2 12  1  0  0  0  0
  2 13  1  0  0  0  0
  3 29  1  0  0  0  0
  5 15  1  0  0  0  0
  5 19  1  0  0  0  0
  8 15  2  0  0  0  0
  9 17  1  0  0  0  0
  9 20  1  0  0  0  0
 10 17  2  0  0  0  0
 11 13  1  0  0  0  0
 11 16  1  0  0  0  0
 12 14  1  6  0  0  0
 12 15  1  0  0  0  0
 12 21  1  0  0  0  0
 13 22  1  0  0  0  0
 13 23  1  0  0  0  0
 14 17  1  0  0  0  0
 14 24  1  0  0  0  0
 14 25  1  0  0  0  0
 16 26  1  0  0  0  0
 16 27  1  0  0  0  0
 16 28  1  0  0  0  0
 18 30  1  0  0  0  0
 18 31  1  0  0  0  0
 18 32  1  0  0  0  0
 19 33  1  0  0  0  0
 19 34  1  0  0  0  0
 19 35  1  0  0  0  0
 20 36  1  0  0  0  0
 20 37  1  0  0  0  0
 20 38  1  0  0  0  0
M  END
> <PUBCHEM_COMPOUND_CID>
2173777

> <PUBCHEM_COMPOUND_CANONICALIZED>
1

> <PUBCHEM_CACTVS_COMPLEXITY>
511

> <PUBCHEM_CACTVS_HBOND_ACCEPTOR>
9

> <PUBCHEM_CACTVS_HBOND_DONOR>
1

> <PUBCHEM_CACTVS_ROTATABLE_BOND>
9

> <PUBCHEM_CACTVS_SUBSKEYS>
AAADceByPAJAAAAAAAAAAAAAAAAAAAAAAAAAAAAAAAAAAAAAAAAAHgwASCAACACIgAaCCAIABDIIQACQCPAAAAAAAAAAAAEIAAAAABAAAAAAAAAEAAAAAABDAAAAAAAAAAAAAAAAAAAAAAAAAAAAAAAAAA==

> <PUBCHEM_IUPAC_OPENEYE_NAME>
[(1R)-3-methoxy-1-methoxycarbonyl-3-oxo-propyl]-[[methyl(methylsulfonyl)amino]methyl]phosphinic acid

> <PUBCHEM_IUPAC_CAS_NAME>
[(2R)-1,4-dimethoxy-1,4-dioxobutan-2-yl]-[[methyl(methylsulfonyl)amino]methyl]phosphinic acid

> <PUBCHEM_IUPAC_NAME_MARKUP>
[(2<I>R</I>)-1,4-dimethoxy-1,4-dioxobutan-2-yl]-[[methyl(methylsulfonyl)amino]methyl]phosphinic acid

> <PUBCHEM_IUPAC_NAME>
[(2R)-1,4-dimethoxy-1,4-dioxobutan-2-yl]-[[methyl(methylsulfonyl)amino]methyl]phosphinic acid

> <PUBCHEM_IUPAC_SYSTEMATIC_NAME>
[(2R)-1,4-dimethoxy-1,4-bis(oxidanylidene)butan-2-yl]-[[methyl(methylsulfonyl)amino]methyl]phosphinic acid

> <PUBCHEM_IUPAC_TRADITIONAL_NAME>
[(1R)-1-carbomethoxy-3-keto-3-methoxy-propyl]-[[mesyl(methyl)amino]methyl]phosphinic acid

> <PUBCHEM_IUPAC_INCHI>
InChI=1S/C9H18NO8PS/c1-10(20(4,15)16)6-19(13,14)7(9(12)18-3)5-8(11)17-2/h7H,5-6H2,1-4H3,(H,13,14)/t7-/m1/s1

> <PUBCHEM_IUPAC_INCHIKEY>
VALSECVMOSUXOH-SSDOTTSWSA-N

> <PUBCHEM_XLOGP3_AA>
-1.9

> <PUBCHEM_EXACT_MASS>
331.04907470

> <PUBCHEM_MOLECULAR_FORMULA>
C9H18NO8PS

> <PUBCHEM_MOLECULAR_WEIGHT>
331.28

> <PUBCHEM_OPENEYE_CAN_SMILES>
CN(CP(=O)(C(CC(=O)OC)C(=O)OC)O)S(=O)(=O)C

> <PUBCHEM_OPENEYE_ISO_SMILES>
CN(CP(=O)([C@H](CC(=O)OC)C(=O)OC)O)S(=O)(=O)C

> <PUBCHEM_CACTVS_TPSA>
136

> <PUBCHEM_MONOISOTOPIC_WEIGHT>
331.04907470

> <PUBCHEM_TOTAL_CHARGE>
0

> <PUBCHEM_HEAVY_ATOM_COUNT>
20

> <PUBCHEM_ATOM_DEF_STEREO_COUNT>
1

> <PUBCHEM_ATOM_UDEF_STEREO_COUNT>
0

> <PUBCHEM_BOND_DEF_STEREO_COUNT>
0

> <PUBCHEM_BOND_UDEF_STEREO_COUNT>
0

> <PUBCHEM_ISOTOPIC_ATOM_COUNT>
0

> <PUBCHEM_COMPONENT_COUNT>
1

> <PUBCHEM_CACTVS_TAUTO_COUNT>
-1

> <PUBCHEM_COORDINATE_TYPE>
1
5
255

> <PUBCHEM_BONDANNOTATIONS>
12  14  6

$$$$
