 
  -OEChem-10192104162D

 79 80  0     1  0  0  0  0  0999 V2000
   13.4905    2.9398    0.0000 O   0  0  0  0  0  0  0  0  0  0  0  0
    7.9082    1.7533    0.0000 O   0  0  0  0  0  0  0  0  0  0  0  0
   20.3331    0.5807    0.0000 O   0  0  0  0  0  0  0  0  0  0  0  0
    2.6166   -3.1850    0.0000 O   0  0  0  0  0  0  0  0  0  0  0  0
   19.7979    2.2280    0.0000 O   0  0  0  0  0  0  0  0  0  0  0  0
    2.4356   -1.4625    0.0000 O   0  0  0  0  0  0  0  0  0  0  0  0
   13.4905    1.9398    0.0000 C   0  0  3  0  0  0  0  0  0  0  0  0
    8.3149    0.8397    0.0000 C   0  0  3  0  0  0  0  0  0  0  0  0
   14.2995    1.3521    0.0000 C   0  0  0  0  0  0  0  0  0  0  0  0
    7.8149   -0.0263    0.0000 C   0  0  0  0  0  0  0  0  0  0  0  0
   12.6815    1.3521    0.0000 C   0  0  0  0  0  0  0  0  0  0  0  0
    9.2930    0.6318    0.0000 C   0  0  0  0  0  0  0  0  0  0  0  0
   18.6389    0.9408    0.0000 C   0  0  0  0  0  0  0  0  0  0  0  0
    4.0179   -2.1670    0.0000 C   0  0  0  0  0  0  0  0  0  0  0  0
   15.2505    1.6611    0.0000 C   0  0  0  0  0  0  0  0  0  0  0  0
    6.8204   -0.1308    0.0000 C   0  0  0  0  0  0  0  0  0  0  0  0
   17.6879    0.6318    0.0000 C   0  0  0  0  0  0  0  0  0  0  0  0
    5.0124   -2.0624    0.0000 C   0  0  0  0  0  0  0  0  0  0  0  0
   16.9447    1.3010    0.0000 C   0  0  0  0  0  0  0  0  0  0  0  0
    5.4191   -1.1489    0.0000 C   0  0  0  0  0  0  0  0  0  0  0  0
   15.9937    0.9919    0.0000 C   0  0  0  0  0  0  0  0  0  0  0  0
    6.4136   -1.0444    0.0000 C   0  0  0  0  0  0  0  0  0  0  0  0
   11.7304    1.6611    0.0000 C   0  0  0  0  0  0  0  0  0  0  0  0
   10.0362    1.3010    0.0000 C   0  0  0  0  0  0  0  0  0  0  0  0
   10.9873    0.9919    0.0000 C   0  0  0  0  0  0  0  0  0  0  0  0
   13.9905    0.4010    0.0000 C   0  0  0  0  0  0  0  0  0  0  0  0
    8.4840   -0.7694    0.0000 C   0  0  0  0  0  0  0  0  0  0  0  0
   12.9905    0.4010    0.0000 C   0  0  0  0  0  0  0  0  0  0  0  0
    9.3976   -0.3627    0.0000 C   0  0  0  0  0  0  0  0  0  0  0  0
   18.9480   -0.0102    0.0000 C   0  0  0  0  0  0  0  0  0  0  0  0
   18.3299    1.8919    0.0000 C   0  0  0  0  0  0  0  0  0  0  0  0
    4.1224   -3.1615    0.0000 C   0  0  0  0  0  0  0  0  0  0  0  0
    3.9133   -1.1724    0.0000 C   0  0  0  0  0  0  0  0  0  0  0  0
   19.5900    1.2499    0.0000 C   0  0  0  0  0  0  0  0  0  0  0  0
    3.0233   -2.2715    0.0000 C   0  0  0  0  0  0  0  0  0  0  0  0
   12.9380    2.2213    0.0000 H   0  0  0  0  0  0  0  0  0  0  0  0
    8.7051    1.3216    0.0000 H   0  0  0  0  0  0  0  0  0  0  0  0
   17.1993    0.2501    0.0000 H   0  0  0  0  0  0  0  0  0  0  0  0
   17.9790    0.0844    0.0000 H   0  0  0  0  0  0  0  0  0  0  0  0
    4.9691   -2.6809    0.0000 H   0  0  0  0  0  0  0  0  0  0  0  0
    5.6140   -2.2124    0.0000 H   0  0  0  0  0  0  0  0  0  0  0  0
   15.7391    2.0428    0.0000 H   0  0  0  0  0  0  0  0  0  0  0  0
   14.9595    2.2085    0.0000 H   0  0  0  0  0  0  0  0  0  0  0  0
    6.8636    0.4877    0.0000 H   0  0  0  0  0  0  0  0  0  0  0  0
    6.2188    0.0192    0.0000 H   0  0  0  0  0  0  0  0  0  0  0  0
   17.4333    1.6827    0.0000 H   0  0  0  0  0  0  0  0  0  0  0  0
   16.6537    1.8484    0.0000 H   0  0  0  0  0  0  0  0  0  0  0  0
    5.4624   -0.5304    0.0000 H   0  0  0  0  0  0  0  0  0  0  0  0
    4.8175   -0.9989    0.0000 H   0  0  0  0  0  0  0  0  0  0  0  0
   15.5051    0.6102    0.0000 H   0  0  0  0  0  0  0  0  0  0  0  0
   16.2848    0.4445    0.0000 H   0  0  0  0  0  0  0  0  0  0  0  0
    6.3704   -1.6628    0.0000 H   0  0  0  0  0  0  0  0  0  0  0  0
    7.0152   -1.1944    0.0000 H   0  0  0  0  0  0  0  0  0  0  0  0
   12.0215    2.2085    0.0000 H   0  0  0  0  0  0  0  0  0  0  0  0
   11.2418    2.0428    0.0000 H   0  0  0  0  0  0  0  0  0  0  0  0
   10.3273    1.8484    0.0000 H   0  0  0  0  0  0  0  0  0  0  0  0
    9.5476    1.6827    0.0000 H   0  0  0  0  0  0  0  0  0  0  0  0
   10.6962    0.4445    0.0000 H   0  0  0  0  0  0  0  0  0  0  0  0
   11.4758    0.6102    0.0000 H   0  0  0  0  0  0  0  0  0  0  0  0
   14.3549   -0.1006    0.0000 H   0  0  0  0  0  0  0  0  0  0  0  0
    8.3551   -1.3759    0.0000 H   0  0  0  0  0  0  0  0  0  0  0  0
   12.6260   -0.1006    0.0000 H   0  0  0  0  0  0  0  0  0  0  0  0
    9.9345   -0.6727    0.0000 H   0  0  0  0  0  0  0  0  0  0  0  0
   18.3583   -0.2018    0.0000 H   0  0  0  0  0  0  0  0  0  0  0  0
   19.1396   -0.5999    0.0000 H   0  0  0  0  0  0  0  0  0  0  0  0
   19.5376    0.1814    0.0000 H   0  0  0  0  0  0  0  0  0  0  0  0
   18.9196    2.0835    0.0000 H   0  0  0  0  0  0  0  0  0  0  0  0
   18.1383    2.4816    0.0000 H   0  0  0  0  0  0  0  0  0  0  0  0
   17.7403    1.7003    0.0000 H   0  0  0  0  0  0  0  0  0  0  0  0
    3.5058   -3.2263    0.0000 H   0  0  0  0  0  0  0  0  0  0  0  0
    4.1872   -3.7781    0.0000 H   0  0  0  0  0  0  0  0  0  0  0  0
    4.7390   -3.0967    0.0000 H   0  0  0  0  0  0  0  0  0  0  0  0
    4.5299   -1.1076    0.0000 H   0  0  0  0  0  0  0  0  0  0  0  0
    3.8485   -0.5558    0.0000 H   0  0  0  0  0  0  0  0  0  0  0  0
    3.2967   -1.2372    0.0000 H   0  0  0  0  0  0  0  0  0  0  0  0
   14.0274    3.2498    0.0000 H   0  0  0  0  0  0  0  0  0  0  0  0
    7.2916    1.8181    0.0000 H   0  0  0  0  0  0  0  0  0  0  0  0
   20.9228    0.7723    0.0000 H   0  0  0  0  0  0  0  0  0  0  0  0
    2.0000   -3.2498    0.0000 H   0  0  0  0  0  0  0  0  0  0  0  0
  1  7  1  0  0  0  0
  1 76  1  0  0  0  0
  2  8  1  0  0  0  0
  2 77  1  0  0  0  0
  3 34  1  0  0  0  0
  3 78  1  0  0  0  0
  4 35  1  0  0  0  0
  4 79  1  0  0  0  0
  5 34  2  0  0  0  0
  6 35  2  0  0  0  0
  7  9  1  0  0  0  0
  7 11  1  0  0  0  0
  7 36  1  0  0  0  0
  8 10  1  0  0  0  0
  8 12  1  0  0  0  0
  8 37  1  0  0  0  0
  9 15  1  0  0  0  0
  9 26  2  0  0  0  0
 10 16  1  0  0  0  0
 10 27  2  0  0  0  0
 11 23  1  0  0  0  0
 11 28  2  0  0  0  0
 12 24  1  0  0  0  0
 12 29  2  0  0  0  0
 13 17  1  0  0  0  0
 13 30  1  0  0  0  0
 13 31  1  0  0  0  0
 13 34  1  0  0  0  0
 14 18  1  0  0  0  0
 14 32  1  0  0  0  0
 14 33  1  0  0  0  0
 14 35  1  0  0  0  0
 15 21  1  0  0  0  0
 15 42  1  0  0  0  0
 15 43  1  0  0  0  0
 16 22  1  0  0  0  0
 16 44  1  0  0  0  0
 16 45  1  0  0  0  0
 17 19  1  0  0  0  0
 17 38  1  0  0  0  0
 17 39  1  0  0  0  0
 18 20  1  0  0  0  0
 18 40  1  0  0  0  0
 18 41  1  0  0  0  0
 19 21  1  0  0  0  0
 19 46  1  0  0  0  0
 19 47  1  0  0  0  0
 20 22  1  0  0  0  0
 20 48  1  0  0  0  0
 20 49  1  0  0  0  0
 21 50  1  0  0  0  0
 21 51  1  0  0  0  0
 22 52  1  0  0  0  0
 22 53  1  0  0  0  0
 23 25  1  0  0  0  0
 23 54  1  0  0  0  0
 23 55  1  0  0  0  0
 24 25  1  0  0  0  0
 24 56  1  0  0  0  0
 24 57  1  0  0  0  0
 25 58  1  0  0  0  0
 25 59  1  0  0  0  0
 26 28  1  0  0  0  0
 26 60  1  0  0  0  0
 27 29  1  0  0  0  0
 27 61  1  0  0  0  0
 28 62  1  0  0  0  0
 29 63  1  0  0  0  0
 30 64  1  0  0  0  0
 30 65  1  0  0  0  0
 30 66  1  0  0  0  0
 31 67  1  0  0  0  0
 31 68  1  0  0  0  0
 31 69  1  0  0  0  0
 32 70  1  0  0  0  0
 32 71  1  0  0  0  0
 32 72  1  0  0  0  0
 33 73  1  0  0  0  0
 33 74  1  0  0  0  0
 33 75  1  0  0  0  0
M  END
> <PUBCHEM_COMPOUND_CID>
59659737

> <PUBCHEM_COMPOUND_CANONICALIZED>
1

> <PUBCHEM_CACTVS_COMPLEXITY>
815

> <PUBCHEM_CACTVS_HBOND_ACCEPTOR>
6

> <PUBCHEM_CACTVS_HBOND_DONOR>
4

> <PUBCHEM_CACTVS_ROTATABLE_BOND>
16

> <PUBCHEM_CACTVS_SUBSKEYS>
AAADcfB4OAAAAAAAAAAAAAAAAAAAAQIAAAAAAAAAAAAAAAAAAAAAGgAACAAADhSggAICCAAAAgCIAiDSCAAAAAAgAAAACAEAAAgIFBIAAQAAUAAEgAAIkAOIyOCNAAAAAAAAAAAAAAAAAAAAAAAAAAAAAA==

> <PUBCHEM_IUPAC_OPENEYE_NAME>
6-[4-[3-[4-(5-carboxy-5-methyl-hexyl)-5-hydroxy-cyclopenta-1,3-dien-1-yl]propyl]-5-hydroxy-cyclopenta-1,3-dien-1-yl]-2,2-dimethyl-hexanoic acid

> <PUBCHEM_IUPAC_CAS_NAME>
6-[4-[3-[4-(5-carboxy-5-methylhexyl)-5-hydroxy-1-cyclopenta-1,3-dienyl]propyl]-5-hydroxy-1-cyclopenta-1,3-dienyl]-2,2-dimethylhexanoic acid

> <PUBCHEM_IUPAC_NAME_MARKUP>
6-[4-[3-[4-(5-carboxy-5-methylhexyl)-5-hydroxycyclopenta-1,3-dien-1-yl]propyl]-5-hydroxycyclopenta-1,3-dien-1-yl]-2,2-dimethylhexanoic acid

> <PUBCHEM_IUPAC_NAME>
6-[4-[3-[4-(5-carboxy-5-methylhexyl)-5-hydroxycyclopenta-1,3-dien-1-yl]propyl]-5-hydroxycyclopenta-1,3-dien-1-yl]-2,2-dimethylhexanoic acid

> <PUBCHEM_IUPAC_SYSTEMATIC_NAME>
6-[4-[3-[4-(5,5-dimethyl-6-oxidanyl-6-oxidanylidene-hexyl)-5-oxidanyl-cyclopenta-1,3-dien-1-yl]propyl]-5-oxidanyl-cyclopenta-1,3-dien-1-yl]-2,2-dimethyl-hexanoic acid

> <PUBCHEM_IUPAC_TRADITIONAL_NAME>
6-[4-[3-[4-(5-carboxy-5-methyl-hexyl)-5-hydroxy-cyclopenta-1,3-dien-1-yl]propyl]-5-hydroxy-cyclopenta-1,3-dien-1-yl]-2,2-dimethyl-hexanoic acid

> <PUBCHEM_IUPAC_INCHI>
InChI=1S/C29H44O6/c1-28(2,26(32)33)18-7-5-10-20-14-16-22(24(20)30)12-9-13-23-17-15-21(25(23)31)11-6-8-19-29(3,4)27(34)35/h14-17,24-25,30-31H,5-13,18-19H2,1-4H3,(H,32,33)(H,34,35)

> <PUBCHEM_IUPAC_INCHIKEY>
ZNRKINZHBVREAG-UHFFFAOYSA-N

> <PUBCHEM_XLOGP3_AA>
4.8

> <PUBCHEM_EXACT_MASS>
488.31378912

> <PUBCHEM_MOLECULAR_FORMULA>
C29H44O6

> <PUBCHEM_MOLECULAR_WEIGHT>
488.7

> <PUBCHEM_OPENEYE_CAN_SMILES>
CC(C)(CCCCC1=CC=C(C1O)CCCC2=CC=C(C2O)CCCCC(C)(C)C(=O)O)C(=O)O

> <PUBCHEM_OPENEYE_ISO_SMILES>
CC(C)(CCCCC1=CC=C(C1O)CCCC2=CC=C(C2O)CCCCC(C)(C)C(=O)O)C(=O)O

> <PUBCHEM_CACTVS_TPSA>
115

> <PUBCHEM_MONOISOTOPIC_WEIGHT>
488.31378912

> <PUBCHEM_TOTAL_CHARGE>
0

> <PUBCHEM_HEAVY_ATOM_COUNT>
35

> <PUBCHEM_ATOM_DEF_STEREO_COUNT>
0

> <PUBCHEM_ATOM_UDEF_STEREO_COUNT>
2

> <PUBCHEM_BOND_DEF_STEREO_COUNT>
0

> <PUBCHEM_BOND_UDEF_STEREO_COUNT>
0

> <PUBCHEM_ISOTOPIC_ATOM_COUNT>
0

> <PUBCHEM_COMPONENT_COUNT>
1

> <PUBCHEM_CACTVS_TAUTO_COUNT>
-1

> <PUBCHEM_COORDINATE_TYPE>
1
5
255

> <PUBCHEM_BONDANNOTATIONS>
7  1  3
8  2  3

$$$$
