 
  -OEChem-10192103312D

 72 74  0     1  0  0  0  0  0999 V2000
    4.2690    1.0000    0.0000 O   0  0  0  0  0  0  0  0  0  0  0  0
    6.0010   -2.0000    0.0000 O   0  0  0  0  0  0  0  0  0  0  0  0
    4.2690   -1.0000    0.0000 O   0  0  0  0  0  0  0  0  0  0  0  0
    4.2690   -2.0000    0.0000 O   0  0  0  0  0  0  0  0  0  0  0  0
    5.1350    2.5000    0.0000 O   0  0  0  0  0  0  0  0  0  0  0  0
    2.5369    2.0000    0.0000 O   0  0  0  0  0  0  0  0  0  0  0  0
    6.0010   -4.0000    0.0000 O   0  0  0  0  0  0  0  0  0  0  0  0
    4.2690   -5.0000    0.0000 O   0  0  0  0  0  0  0  0  0  0  0  0
    4.2690    5.0000    0.0000 O   0  0  0  0  0  0  0  0  0  0  0  0
    2.5369   -4.0000    0.0000 O   0  0  0  0  0  0  0  0  0  0  0  0
    6.0010    5.0000    0.0000 O   0  0  0  0  0  0  0  0  0  0  0  0
    2.5369    4.0000    0.0000 N   0  0  0  0  0  0  0  0  0  0  0  0
    5.1350    0.5000    0.0000 C   0  0  3  0  0  0  0  0  0  0  0  0
    6.0010   -1.0000    0.0000 C   0  0  3  0  0  0  0  0  0  0  0  0
    6.0010    1.0000    0.0000 C   0  0  1  0  0  0  0  0  0  0  0  0
    6.8671   -0.5000    0.0000 C   0  0  3  0  0  0  0  0  0  0  0  0
    5.1350   -0.5000    0.0000 C   0  0  2  0  0  0  0  0  0  0  0  0
    6.8671    0.5000    0.0000 C   0  0  0  0  0  0  0  0  0  0  0  0
    6.0010    2.0000    0.0000 C   0  0  0  0  0  0  0  0  0  0  0  0
    7.7331   -1.0000    0.0000 C   0  0  0  0  0  0  0  0  0  0  0  0
    4.2690    2.0000    0.0000 C   0  0  3  0  0  0  0  0  0  0  0  0
    5.1350   -2.5000    0.0000 C   0  0  1  0  0  0  0  0  0  0  0  0
    3.4030    2.5000    0.0000 C   0  0  1  0  0  0  0  0  0  0  0  0
    5.1350   -3.5000    0.0000 C   0  0  3  0  0  0  0  0  0  0  0  0
    3.4030    3.5000    0.0000 C   0  0  3  0  0  0  0  0  0  0  0  0
    4.2690   -4.0000    0.0000 C   0  0  2  0  0  0  0  0  0  0  0  0
    4.2690    4.0000    0.0000 C   0  0  1  0  0  0  0  0  0  0  0  0
    3.4030   -2.5000    0.0000 C   0  0  3  0  0  0  0  0  0  0  0  0
    3.4030   -3.5000    0.0000 C   0  0  1  0  0  0  0  0  0  0  0  0
    5.1350    3.5000    0.0000 C   0  0  1  0  0  0  0  0  0  0  0  0
    2.5369   -2.0000    0.0000 C   0  0  0  0  0  0  0  0  0  0  0  0
    6.0010    4.0000    0.0000 C   0  0  0  0  0  0  0  0  0  0  0  0
    2.5369   -1.0000    0.0000 C   0  0  0  0  0  0  0  0  0  0  0  0
    5.1350    1.1200    0.0000 H   0  0  0  0  0  0  0  0  0  0  0  0
    6.5380   -1.3100    0.0000 H   0  0  0  0  0  0  0  0  0  0  0  0
    6.5380    1.3100    0.0000 H   0  0  0  0  0  0  0  0  0  0  0  0
    7.4040   -0.1900    0.0000 H   0  0  0  0  0  0  0  0  0  0  0  0
    5.1350   -1.1200    0.0000 H   0  0  0  0  0  0  0  0  0  0  0  0
    7.4776    0.3923    0.0000 H   0  0  0  0  0  0  0  0  0  0  0  0
    7.0791    1.0826    0.0000 H   0  0  0  0  0  0  0  0  0  0  0  0
    6.6210    2.0000    0.0000 H   0  0  0  0  0  0  0  0  0  0  0  0
    6.0010    2.6200    0.0000 H   0  0  0  0  0  0  0  0  0  0  0  0
    5.3810    2.0000    0.0000 H   0  0  0  0  0  0  0  0  0  0  0  0
    7.4231   -1.5369    0.0000 H   0  0  0  0  0  0  0  0  0  0  0  0
    8.2700   -1.3100    0.0000 H   0  0  0  0  0  0  0  0  0  0  0  0
    8.0431   -0.4631    0.0000 H   0  0  0  0  0  0  0  0  0  0  0  0
    3.7320    1.6900    0.0000 H   0  0  0  0  0  0  0  0  0  0  0  0
    5.1350   -1.8800    0.0000 H   0  0  0  0  0  0  0  0  0  0  0  0
    2.8660    2.8100    0.0000 H   0  0  0  0  0  0  0  0  0  0  0  0
    5.1350   -4.1200    0.0000 H   0  0  0  0  0  0  0  0  0  0  0  0
    3.4030    4.1200    0.0000 H   0  0  0  0  0  0  0  0  0  0  0  0
    3.7320   -4.3100    0.0000 H   0  0  0  0  0  0  0  0  0  0  0  0
    4.8059    4.3100    0.0000 H   0  0  0  0  0  0  0  0  0  0  0  0
    3.4030   -1.8800    0.0000 H   0  0  0  0  0  0  0  0  0  0  0  0
    3.7320   -0.6900    0.0000 H   0  0  0  0  0  0  0  0  0  0  0  0
    3.4030   -4.1200    0.0000 H   0  0  0  0  0  0  0  0  0  0  0  0
    5.6720    3.1900    0.0000 H   0  0  0  0  0  0  0  0  0  0  0  0
    1.9264   -1.8923    0.0000 H   0  0  0  0  0  0  0  0  0  0  0  0
    2.3249   -2.5826    0.0000 H   0  0  0  0  0  0  0  0  0  0  0  0
    6.2131    3.4174    0.0000 H   0  0  0  0  0  0  0  0  0  0  0  0
    6.6116    4.1077    0.0000 H   0  0  0  0  0  0  0  0  0  0  0  0
    2.5369    4.6200    0.0000 H   0  0  0  0  0  0  0  0  0  0  0  0
    2.0000    3.6900    0.0000 H   0  0  0  0  0  0  0  0  0  0  0  0
    2.0000    2.3100    0.0000 H   0  0  0  0  0  0  0  0  0  0  0  0
    6.0010   -4.6200    0.0000 H   0  0  0  0  0  0  0  0  0  0  0  0
    3.7320   -5.3100    0.0000 H   0  0  0  0  0  0  0  0  0  0  0  0
    3.7320    5.3100    0.0000 H   0  0  0  0  0  0  0  0  0  0  0  0
    2.0000   -3.6900    0.0000 H   0  0  0  0  0  0  0  0  0  0  0  0
    3.1569   -1.0000    0.0000 H   0  0  0  0  0  0  0  0  0  0  0  0
    2.5369   -0.3800    0.0000 H   0  0  0  0  0  0  0  0  0  0  0  0
    1.9169   -1.0000    0.0000 H   0  0  0  0  0  0  0  0  0  0  0  0
    6.5380    5.3100    0.0000 H   0  0  0  0  0  0  0  0  0  0  0  0
  1 13  1  0  0  0  0
  1 21  1  0  0  0  0
  2 14  1  0  0  0  0
 22  2  1  6  0  0  0
 17  3  1  6  0  0  0
  3 55  1  0  0  0  0
  4 22  1  0  0  0  0
  4 28  1  0  0  0  0
  5 21  1  0  0  0  0
  5 30  1  0  0  0  0
 23  6  1  6  0  0  0
  6 64  1  0  0  0  0
  7 24  1  0  0  0  0
  7 65  1  0  0  0  0
 26  8  1  1  0  0  0
  8 66  1  0  0  0  0
 27  9  1  6  0  0  0
  9 67  1  0  0  0  0
 29 10  1  6  0  0  0
 10 68  1  0  0  0  0
 11 32  1  0  0  0  0
 11 72  1  0  0  0  0
 12 25  1  0  0  0  0
 12 62  1  0  0  0  0
 12 63  1  0  0  0  0
 13 15  1  0  0  0  0
 13 17  1  0  0  0  0
 13 34  1  0  0  0  0
 14 16  1  0  0  0  0
 14 17  1  0  0  0  0
 14 35  1  0  0  0  0
 15 18  1  0  0  0  0
 15 19  1  6  0  0  0
 15 36  1  0  0  0  0
 16 18  1  0  0  0  0
 16 20  1  0  0  0  0
 16 37  1  0  0  0  0
 17 38  1  0  0  0  0
 18 39  1  0  0  0  0
 18 40  1  0  0  0  0
 19 41  1  0  0  0  0
 19 42  1  0  0  0  0
 19 43  1  0  0  0  0
 20 44  1  0  0  0  0
 20 45  1  0  0  0  0
 20 46  1  0  0  0  0
 21 23  1  0  0  0  0
 21 47  1  0  0  0  0
 22 24  1  0  0  0  0
 22 48  1  0  0  0  0
 23 25  1  0  0  0  0
 23 49  1  0  0  0  0
 24 26  1  0  0  0  0
 24 50  1  0  0  0  0
 25 27  1  0  0  0  0
 25 51  1  0  0  0  0
 26 29  1  0  0  0  0
 26 52  1  0  0  0  0
 27 30  1  0  0  0  0
 27 53  1  0  0  0  0
 28 29  1  0  0  0  0
 28 31  1  0  0  0  0
 28 54  1  0  0  0  0
 29 56  1  0  0  0  0
 30 32  1  1  0  0  0
 30 57  1  0  0  0  0
 31 33  1  0  0  0  0
 31 58  1  0  0  0  0
 31 59  1  0  0  0  0
 32 60  1  0  0  0  0
 32 61  1  0  0  0  0
 33 69  1  0  0  0  0
 33 70  1  0  0  0  0
 33 71  1  0  0  0  0
M  END
> <PUBCHEM_COMPOUND_CID>
118912712

> <PUBCHEM_COMPOUND_CANONICALIZED>
1

> <PUBCHEM_CACTVS_COMPLEXITY>
629

> <PUBCHEM_CACTVS_HBOND_ACCEPTOR>
12

> <PUBCHEM_CACTVS_HBOND_DONOR>
8

> <PUBCHEM_CACTVS_ROTATABLE_BOND>
6

> <PUBCHEM_CACTVS_SUBSKEYS>
AAADcfB6PAAAAAAAAAAAAAAAAAAAAAAAAAA0SIAAAAAAAAAAAAAAHgAQCAAADTzxgAcCCABABgAAAAAAAAAAAAAAAAAAAIAAAAATEAIAgAAiQAAHEAAHAAHg4HwOAAAAAAAAAABAAAYQABCAAAAAAAAAAA==

> <PUBCHEM_IUPAC_OPENEYE_NAME>
(2R,4S,5S)-2-[(2R,4R)-3-[(3R,5S,6R)-4-amino-3,5-dihydroxy-6-(hydroxymethyl)tetrahydropyran-2-yl]oxy-2-hydroxy-4,6-dimethyl-cyclohexoxy]-6-ethyl-tetrahydropyran-3,4,5-triol

> <PUBCHEM_IUPAC_CAS_NAME>
(2R,4S,5S)-2-[(2R,4R)-3-[[(3R,5S,6R)-4-amino-3,5-dihydroxy-6-(hydroxymethyl)-2-oxanyl]oxy]-2-hydroxy-4,6-dimethylcyclohexyl]oxy-6-ethyloxane-3,4,5-triol

> <PUBCHEM_IUPAC_NAME_MARKUP>
(2<I>R</I>,4<I>S</I>,5<I>S</I>)-2-[(2<I>R</I>,4<I>R</I>)-3-[(3<I>R</I>,5<I>S</I>,6<I>R</I>)-4-amino-3,5-dihydroxy-6-(hydroxymethyl)oxan-2-yl]oxy-2-hydroxy-4,6-dimethylcyclohexyl]oxy-6-ethyloxane-3,4,5-triol

> <PUBCHEM_IUPAC_NAME>
(2R,4S,5S)-2-[(2R,4R)-3-[(3R,5S,6R)-4-amino-3,5-dihydroxy-6-(hydroxymethyl)oxan-2-yl]oxy-2-hydroxy-4,6-dimethylcyclohexyl]oxy-6-ethyloxane-3,4,5-triol

> <PUBCHEM_IUPAC_SYSTEMATIC_NAME>
(2R,4S,5S)-2-[(2R,4R)-3-[(3R,5S,6R)-4-azanyl-6-(hydroxymethyl)-3,5-bis(oxidanyl)oxan-2-yl]oxy-4,6-dimethyl-2-oxidanyl-cyclohexyl]oxy-6-ethyl-oxane-3,4,5-triol

> <PUBCHEM_IUPAC_TRADITIONAL_NAME>
(2R,4S,5S)-2-[(2R,4R)-3-[(3R,5S,6R)-4-amino-3,5-dihydroxy-6-methylol-tetrahydropyran-2-yl]oxy-2-hydroxy-4,6-dimethyl-cyclohexoxy]-6-ethyl-tetrahydropyran-3,4,5-triol

> <PUBCHEM_IUPAC_INCHI>
InChI=1S/C21H39NO11/c1-4-9-13(25)15(27)16(28)21(30-9)33-19-8(3)5-7(2)18(17(19)29)32-20-14(26)11(22)12(24)10(6-23)31-20/h7-21,23-29H,4-6,22H2,1-3H3/t7-,8?,9?,10-,11?,12-,13-,14-,15+,16?,17-,18?,19?,20?,21-/m1/s1

> <PUBCHEM_IUPAC_INCHIKEY>
WUBOMQJQZJXGEO-RYQXOUTFSA-N

> <PUBCHEM_XLOGP3_AA>
-2.3

> <PUBCHEM_EXACT_MASS>
481.25231106

> <PUBCHEM_MOLECULAR_FORMULA>
C21H39NO11

> <PUBCHEM_MOLECULAR_WEIGHT>
481.5

> <PUBCHEM_OPENEYE_CAN_SMILES>
CCC1C(C(C(C(O1)OC2C(CC(C(C2O)OC3C(C(C(C(O3)CO)O)N)O)C)C)O)O)O

> <PUBCHEM_OPENEYE_ISO_SMILES>
CCC1[C@H]([C@@H](C([C@H](O1)OC2[C@@H](C([C@@H](CC2C)C)OC3[C@@H](C([C@@H]([C@H](O3)CO)O)N)O)O)O)O)O

> <PUBCHEM_CACTVS_TPSA>
205

> <PUBCHEM_MONOISOTOPIC_WEIGHT>
481.25231106

> <PUBCHEM_TOTAL_CHARGE>
0

> <PUBCHEM_HEAVY_ATOM_COUNT>
33

> <PUBCHEM_ATOM_DEF_STEREO_COUNT>
8

> <PUBCHEM_ATOM_UDEF_STEREO_COUNT>
7

> <PUBCHEM_BOND_DEF_STEREO_COUNT>
0

> <PUBCHEM_BOND_UDEF_STEREO_COUNT>
0

> <PUBCHEM_ISOTOPIC_ATOM_COUNT>
0

> <PUBCHEM_COMPONENT_COUNT>
1

> <PUBCHEM_CACTVS_TAUTO_COUNT>
-1

> <PUBCHEM_COORDINATE_TYPE>
1
5
255

> <PUBCHEM_BONDANNOTATIONS>
13  1  3
21  1  3
29  10  6
25  12  3
15  19  6
16  20  3
14  2  3
22  2  6
28  31  3
17  3  6
30  32  5
23  6  6
24  7  3
26  8  5
27  9  6

$$$$
