 
  -OEChem-10192103452D

 67 67  0     1  0  0  0  0  0999 V2000
    6.0010   -2.4050    0.0000 O   0  0  0  0  0  0  0  0  0  0  0  0
    4.2690   -2.4050    0.0000 O   0  0  0  0  0  0  0  0  0  0  0  0
    6.0010   -4.4050    0.0000 O   0  0  0  0  0  0  0  0  0  0  0  0
    4.2690   -5.4050    0.0000 O   0  0  0  0  0  0  0  0  0  0  0  0
    2.5369   -4.4050    0.0000 O   0  0  0  0  0  0  0  0  0  0  0  0
    5.1350    0.0950    0.0000 O   0  0  0  0  0  0  0  0  0  0  0  0
    2.5369   -1.4050    0.0000 O   0  0  0  0  0  0  0  0  0  0  0  0
   10.3312    5.0950    0.0000 O   0  0  0  0  0  0  0  0  0  0  0  0
    5.1350   -2.9050    0.0000 C   0  0  2  0  0  0  0  0  0  0  0  0
    5.1350   -3.9050    0.0000 C   0  0  1  0  0  0  0  0  0  0  0  0
    4.2690   -4.4050    0.0000 C   0  0  2  0  0  0  0  0  0  0  0  0
    6.0010   -1.4050    0.0000 C   0  0  0  0  0  0  0  0  0  0  0  0
    3.4030   -3.9050    0.0000 C   0  0  1  0  0  0  0  0  0  0  0  0
    3.4030   -2.9050    0.0000 C   0  0  1  0  0  0  0  0  0  0  0  0
    6.0010   -0.4050    0.0000 C   0  0  1  0  0  0  0  0  0  0  0  0
    6.8671    0.0950    0.0000 C   0  0  0  0  0  0  0  0  0  0  0  0
    7.0010   -1.4050    0.0000 C   0  0  0  0  0  0  0  0  0  0  0  0
    5.0010   -1.4050    0.0000 C   0  0  0  0  0  0  0  0  0  0  0  0
    2.5369   -2.4050    0.0000 C   0  0  0  0  0  0  0  0  0  0  0  0
    6.8671    1.0950    0.0000 C   0  0  0  0  0  0  0  0  0  0  0  0
    7.7331    1.5950    0.0000 C   0  0  0  0  0  0  0  0  0  0  0  0
    7.7331    2.5950    0.0000 C   0  0  0  0  0  0  0  0  0  0  0  0
    8.5991    3.0950    0.0000 C   0  0  0  0  0  0  0  0  0  0  0  0
    8.5991    4.0950    0.0000 C   0  0  0  0  0  0  0  0  0  0  0  0
    8.5991    1.0950    0.0000 C   0  0  0  0  0  0  0  0  0  0  0  0
    9.4651    4.5950    0.0000 C   0  0  2  0  0  0  0  0  0  0  0  0
    9.9651    3.7290    0.0000 C   0  0  0  0  0  0  0  0  0  0  0  0
    8.9651    5.4610    0.0000 C   0  0  0  0  0  0  0  0  0  0  0  0
    7.9651    5.4610    0.0000 C   0  0  0  0  0  0  0  0  0  0  0  0
    5.1350   -2.2850    0.0000 H   0  0  0  0  0  0  0  0  0  0  0  0
    5.6720   -3.5950    0.0000 H   0  0  0  0  0  0  0  0  0  0  0  0
    4.8059   -4.7150    0.0000 H   0  0  0  0  0  0  0  0  0  0  0  0
    2.8660   -3.5950    0.0000 H   0  0  0  0  0  0  0  0  0  0  0  0
    3.4030   -2.2850    0.0000 H   0  0  0  0  0  0  0  0  0  0  0  0
    6.0010    0.2150    0.0000 H   0  0  0  0  0  0  0  0  0  0  0  0
    7.0791   -0.4876    0.0000 H   0  0  0  0  0  0  0  0  0  0  0  0
    7.4776    0.2027    0.0000 H   0  0  0  0  0  0  0  0  0  0  0  0
    7.0010   -2.0250    0.0000 H   0  0  0  0  0  0  0  0  0  0  0  0
    7.6210   -1.4050    0.0000 H   0  0  0  0  0  0  0  0  0  0  0  0
    7.0010   -0.7850    0.0000 H   0  0  0  0  0  0  0  0  0  0  0  0
    5.0010   -0.7850    0.0000 H   0  0  0  0  0  0  0  0  0  0  0  0
    4.3810   -1.4050    0.0000 H   0  0  0  0  0  0  0  0  0  0  0  0
    5.0010   -2.0250    0.0000 H   0  0  0  0  0  0  0  0  0  0  0  0
    1.9264   -2.2973    0.0000 H   0  0  0  0  0  0  0  0  0  0  0  0
    2.3249   -2.9876    0.0000 H   0  0  0  0  0  0  0  0  0  0  0  0
    6.6550    1.6776    0.0000 H   0  0  0  0  0  0  0  0  0  0  0  0
    6.2565    0.9873    0.0000 H   0  0  0  0  0  0  0  0  0  0  0  0
    6.0010   -5.0250    0.0000 H   0  0  0  0  0  0  0  0  0  0  0  0
    3.7320   -5.7150    0.0000 H   0  0  0  0  0  0  0  0  0  0  0  0
    2.0000   -4.0950    0.0000 H   0  0  0  0  0  0  0  0  0  0  0  0
    5.1350    0.7150    0.0000 H   0  0  0  0  0  0  0  0  0  0  0  0
    2.0000   -1.0950    0.0000 H   0  0  0  0  0  0  0  0  0  0  0  0
    7.1962    2.9050    0.0000 H   0  0  0  0  0  0  0  0  0  0  0  0
    8.8112    2.5124    0.0000 H   0  0  0  0  0  0  0  0  0  0  0  0
    9.2097    3.2027    0.0000 H   0  0  0  0  0  0  0  0  0  0  0  0
    8.3871    4.6776    0.0000 H   0  0  0  0  0  0  0  0  0  0  0  0
    7.9885    3.9873    0.0000 H   0  0  0  0  0  0  0  0  0  0  0  0
    8.2891    0.5581    0.0000 H   0  0  0  0  0  0  0  0  0  0  0  0
    9.1360    0.7850    0.0000 H   0  0  0  0  0  0  0  0  0  0  0  0
    8.9091    1.6319    0.0000 H   0  0  0  0  0  0  0  0  0  0  0  0
    9.4282    3.4190    0.0000 H   0  0  0  0  0  0  0  0  0  0  0  0
   10.2751    3.1920    0.0000 H   0  0  0  0  0  0  0  0  0  0  0  0
   10.5021    4.0390    0.0000 H   0  0  0  0  0  0  0  0  0  0  0  0
    9.2751    5.9980    0.0000 H   0  0  0  0  0  0  0  0  0  0  0  0
   10.3312    5.7150    0.0000 H   0  0  0  0  0  0  0  0  0  0  0  0
    7.6551    5.9980    0.0000 H   0  0  0  0  0  0  0  0  0  0  0  0
    7.6551    4.9241    0.0000 H   0  0  0  0  0  0  0  0  0  0  0  0
  9  1  1  1  0  0  0
  1 12  1  0  0  0  0
  2  9  1  0  0  0  0
  2 14  1  0  0  0  0
 10  3  1  6  0  0  0
  3 48  1  0  0  0  0
 11  4  1  1  0  0  0
  4 49  1  0  0  0  0
 13  5  1  6  0  0  0
  5 50  1  0  0  0  0
 15  6  1  6  0  0  0
  6 51  1  0  0  0  0
  7 19  1  0  0  0  0
  7 52  1  0  0  0  0
 26  8  1  1  0  0  0
  8 65  1  0  0  0  0
  9 10  1  0  0  0  0
  9 30  1  0  0  0  0
 10 11  1  0  0  0  0
 10 31  1  0  0  0  0
 11 13  1  0  0  0  0
 11 32  1  0  0  0  0
 12 15  1  0  0  0  0
 12 17  1  0  0  0  0
 12 18  1  0  0  0  0
 13 14  1  0  0  0  0
 13 33  1  0  0  0  0
 14 19  1  1  0  0  0
 14 34  1  0  0  0  0
 15 16  1  0  0  0  0
 15 35  1  0  0  0  0
 16 20  1  0  0  0  0
 16 36  1  0  0  0  0
 16 37  1  0  0  0  0
 17 38  1  0  0  0  0
 17 39  1  0  0  0  0
 17 40  1  0  0  0  0
 18 41  1  0  0  0  0
 18 42  1  0  0  0  0
 18 43  1  0  0  0  0
 19 44  1  0  0  0  0
 19 45  1  0  0  0  0
 20 21  1  0  0  0  0
 20 46  1  0  0  0  0
 20 47  1  0  0  0  0
 21 22  2  0  0  0  0
 21 25  1  0  0  0  0
 22 23  1  0  0  0  0
 22 53  1  0  0  0  0
 23 24  1  0  0  0  0
 23 54  1  0  0  0  0
 23 55  1  0  0  0  0
 24 26  1  0  0  0  0
 24 56  1  0  0  0  0
 24 57  1  0  0  0  0
 25 58  1  0  0  0  0
 25 59  1  0  0  0  0
 25 60  1  0  0  0  0
 26 27  1  0  0  0  0
 26 28  1  0  0  0  0
 27 61  1  0  0  0  0
 27 62  1  0  0  0  0
 27 63  1  0  0  0  0
 28 29  2  0  0  0  0
 28 64  1  0  0  0  0
 29 66  1  0  0  0  0
 29 67  1  0  0  0  0
M  END
> <PUBCHEM_COMPOUND_CID>
16086631

> <PUBCHEM_COMPOUND_CANONICALIZED>
1

> <PUBCHEM_CACTVS_COMPLEXITY>
549

> <PUBCHEM_CACTVS_HBOND_ACCEPTOR>
8

> <PUBCHEM_CACTVS_HBOND_DONOR>
6

> <PUBCHEM_CACTVS_ROTATABLE_BOND>
11

> <PUBCHEM_CACTVS_SUBSKEYS>
AAADcfB4PAAAAAAAAAAAAAAAAAAAAAAAAAAkAAAAAAAAAAAAAAAAGgAACAAADFSwgAMCCAAABgCAAiBCAAAAAAAgAAAICAAAAAgRFAIAAQAiQAAFgAAPEAPA4EwMAAAAAAAAAAAAAAAAAAAAAAAAAAAAAA==

> <PUBCHEM_IUPAC_OPENEYE_NAME>
(2S,3R,4S,5S,6R)-2-[(2R,5E,9S)-2,9-dihydroxy-1,1,5,9-tetramethyl-undeca-5,10-dienoxy]-6-(hydroxymethyl)tetrahydropyran-3,4,5-triol

> <PUBCHEM_IUPAC_CAS_NAME>
(2S,3R,4S,5S,6R)-2-[(3R,6E,10S)-3,10-dihydroxy-2,6,10-trimethyldodeca-6,11-dien-2-yl]oxy-6-(hydroxymethyl)oxane-3,4,5-triol

> <PUBCHEM_IUPAC_NAME_MARKUP>
(2<I>S</I>,3<I>R</I>,4<I>S</I>,5<I>S</I>,6<I>R</I>)-2-[(3<I>R</I>,6<I>E</I>,10<I>S</I>)-3,10-dihydroxy-2,6,10-trimethyldodeca-6,11-dien-2-yl]oxy-6-(hydroxymethyl)oxane-3,4,5-triol

> <PUBCHEM_IUPAC_NAME>
(2S,3R,4S,5S,6R)-2-[(3R,6E,10S)-3,10-dihydroxy-2,6,10-trimethyldodeca-6,11-dien-2-yl]oxy-6-(hydroxymethyl)oxane-3,4,5-triol

> <PUBCHEM_IUPAC_SYSTEMATIC_NAME>
(2R,3S,4S,5R,6S)-2-(hydroxymethyl)-6-[(3R,6E,10S)-2,6,10-trimethyl-3,10-bis(oxidanyl)dodeca-6,11-dien-2-yl]oxy-oxane-3,4,5-triol

> <PUBCHEM_IUPAC_TRADITIONAL_NAME>
(2S,3R,4S,5S,6R)-2-[(2R,5E,9S)-2,9-dihydroxy-1,1,5,9-tetramethyl-undeca-5,10-dienoxy]-6-methylol-tetrahydropyran-3,4,5-triol

> <PUBCHEM_IUPAC_INCHI>
InChI=1S/C21H38O8/c1-6-21(5,27)11-7-8-13(2)9-10-15(23)20(3,4)29-19-18(26)17(25)16(24)14(12-22)28-19/h6,8,14-19,22-27H,1,7,9-12H2,2-5H3/b13-8+/t14-,15-,16-,17+,18-,19+,21-/m1/s1

> <PUBCHEM_IUPAC_INCHIKEY>
WKYGQQFTDYRORI-HRWVGWAHSA-N

> <PUBCHEM_XLOGP3_AA>
0.7

> <PUBCHEM_EXACT_MASS>
418.25666817

> <PUBCHEM_MOLECULAR_FORMULA>
C21H38O8

> <PUBCHEM_MOLECULAR_WEIGHT>
418.5

> <PUBCHEM_OPENEYE_CAN_SMILES>
CC(=CCCC(C)(C=C)O)CCC(C(C)(C)OC1C(C(C(C(O1)CO)O)O)O)O

> <PUBCHEM_OPENEYE_ISO_SMILES>
C/C(=C\CC[C@@](C)(C=C)O)/CC[C@H](C(C)(C)O[C@H]1[C@@H]([C@H]([C@@H]([C@H](O1)CO)O)O)O)O

> <PUBCHEM_CACTVS_TPSA>
140

> <PUBCHEM_MONOISOTOPIC_WEIGHT>
418.25666817

> <PUBCHEM_TOTAL_CHARGE>
0

> <PUBCHEM_HEAVY_ATOM_COUNT>
29

> <PUBCHEM_ATOM_DEF_STEREO_COUNT>
7

> <PUBCHEM_ATOM_UDEF_STEREO_COUNT>
0

> <PUBCHEM_BOND_DEF_STEREO_COUNT>
1

> <PUBCHEM_BOND_UDEF_STEREO_COUNT>
0

> <PUBCHEM_ISOTOPIC_ATOM_COUNT>
0

> <PUBCHEM_COMPONENT_COUNT>
1

> <PUBCHEM_CACTVS_TAUTO_COUNT>
-1

> <PUBCHEM_COORDINATE_TYPE>
1
5
255

> <PUBCHEM_BONDANNOTATIONS>
9  1  5
14  19  5
10  3  6
11  4  5
13  5  6
15  6  6
26  8  5

$$$$
