 
  -OEChem-10192103542D

 32 33  0     1  0  0  0  0  0999 V2000
    5.4883   -2.1372    0.0000 O   0  0  0  0  0  0  0  0  0  0  0  0
    6.2619   -0.7461    0.0000 O   0  0  0  0  0  0  0  0  0  0  0  0
    4.9889    1.0092    0.0000 O   0  0  0  0  0  0  0  0  0  0  0  0
    2.0000   -1.2461    0.0000 O   0  0  0  0  0  0  0  0  0  0  0  0
    2.8660   -2.7461    0.0000 O   0  0  0  0  0  0  0  0  0  0  0  0
    2.0000    1.7539    0.0000 O   0  0  0  0  0  0  0  0  0  0  0  0
    3.7320    1.7539    0.0000 O   0  0  0  0  0  0  0  0  0  0  0  0
    4.6783   -1.5508    0.0000 C   0  0  3  0  0  0  0  0  0  0  0  0
    3.7320   -1.2461    0.0000 C   0  0  3  0  0  0  0  0  0  0  0  0
    3.7320   -0.2461    0.0000 C   0  0  3  0  0  0  0  0  0  0  0  0
    5.2619   -0.7461    0.0000 C   0  0  3  0  0  0  0  0  0  0  0  0
    4.6783    0.0586    0.0000 C   0  0  3  0  0  0  0  0  0  0  0  0
    2.8660    0.2539    0.0000 C   0  0  0  0  0  0  0  0  0  0  0  0
    4.3709   -2.5024    0.0000 C   0  0  0  0  0  0  0  0  0  0  0  0
    2.8660   -1.7461    0.0000 C   0  0  0  0  0  0  0  0  0  0  0  0
    2.0000   -0.2461    0.0000 C   0  0  0  0  0  0  0  0  0  0  0  0
    2.8660    1.2539    0.0000 C   0  0  0  0  0  0  0  0  0  0  0  0
    2.0000    2.7539    0.0000 C   0  0  0  0  0  0  0  0  0  0  0  0
    3.8220   -2.0913    0.0000 H   0  0  0  0  0  0  0  0  0  0  0  0
    3.8220    0.5991    0.0000 H   0  0  0  0  0  0  0  0  0  0  0  0
    5.6481   -1.5033    0.0000 H   0  0  0  0  0  0  0  0  0  0  0  0
    5.5180    0.1905    0.0000 H   0  0  0  0  0  0  0  0  0  0  0  0
    3.7809   -2.3118    0.0000 H   0  0  0  0  0  0  0  0  0  0  0  0
    4.1803   -3.0924    0.0000 H   0  0  0  0  0  0  0  0  0  0  0  0
    4.9609   -2.6930    0.0000 H   0  0  0  0  0  0  0  0  0  0  0  0
    5.4246   -2.7539    0.0000 H   0  0  0  0  0  0  0  0  0  0  0  0
    6.5719   -0.2091    0.0000 H   0  0  0  0  0  0  0  0  0  0  0  0
    5.5956    1.1370    0.0000 H   0  0  0  0  0  0  0  0  0  0  0  0
    1.4631    0.0639    0.0000 H   0  0  0  0  0  0  0  0  0  0  0  0
    2.6200    2.7539    0.0000 H   0  0  0  0  0  0  0  0  0  0  0  0
    2.0000    3.3739    0.0000 H   0  0  0  0  0  0  0  0  0  0  0  0
    1.3800    2.7539    0.0000 H   0  0  0  0  0  0  0  0  0  0  0  0
  1  8  1  0  0  0  0
  1 26  1  0  0  0  0
  2 11  1  0  0  0  0
  2 27  1  0  0  0  0
  3 12  1  0  0  0  0
  3 28  1  0  0  0  0
  4 15  1  0  0  0  0
  4 16  1  0  0  0  0
  5 15  2  0  0  0  0
  6 17  1  0  0  0  0
  6 18  1  0  0  0  0
  7 17  2  0  0  0  0
  8  9  1  0  0  0  0
  8 11  1  0  0  0  0
  8 14  1  0  0  0  0
  9 10  1  0  0  0  0
  9 15  1  0  0  0  0
  9 19  1  0  0  0  0
 10 12  1  0  0  0  0
 10 13  1  0  0  0  0
 10 20  1  0  0  0  0
 11 12  1  0  0  0  0
 11 21  1  0  0  0  0
 12 22  1  0  0  0  0
 13 16  2  0  0  0  0
 13 17  1  0  0  0  0
 14 23  1  0  0  0  0
 14 24  1  0  0  0  0
 14 25  1  0  0  0  0
 16 29  1  0  0  0  0
 18 30  1  0  0  0  0
 18 31  1  0  0  0  0
 18 32  1  0  0  0  0
M  END
> <PUBCHEM_COMPOUND_CID>
156634

> <PUBCHEM_COMPOUND_CANONICALIZED>
1

> <PUBCHEM_CACTVS_COMPLEXITY>
429

> <PUBCHEM_CACTVS_HBOND_ACCEPTOR>
7

> <PUBCHEM_CACTVS_HBOND_DONOR>
3

> <PUBCHEM_CACTVS_ROTATABLE_BOND>
2

> <PUBCHEM_CACTVS_SUBSKEYS>
AAADccBwOAAAAAAAAAAAAAAAAAAAAYAAAAAgAAAAAAAAAEAAAAAAGgAACAAADVSggAICCAAABgCIAgDSCAAACAAgIAAAAAEAAEgBFBYAIQAAQAAF4AABIIHK7vzOgAAAAAAAAAAAAAAAAAAAAYQADCAAAA==

> <PUBCHEM_IUPAC_OPENEYE_NAME>
methyl 5,6,7-trihydroxy-7-methyl-1-oxo-4a,5,6,7a-tetrahydrocyclopenta[c]pyran-4-carboxylate

> <PUBCHEM_IUPAC_CAS_NAME>
5,6,7-trihydroxy-7-methyl-1-oxo-4a,5,6,7a-tetrahydrocyclopenta[c]pyran-4-carboxylic acid methyl ester

> <PUBCHEM_IUPAC_NAME_MARKUP>
methyl 5,6,7-trihydroxy-7-methyl-1-oxo-4<I>a</I>,5,6,7<I>a</I>-tetrahydrocyclopenta[c]pyran-4-carboxylate

> <PUBCHEM_IUPAC_NAME>
methyl 5,6,7-trihydroxy-7-methyl-1-oxo-4a,5,6,7a-tetrahydrocyclopenta[c]pyran-4-carboxylate

> <PUBCHEM_IUPAC_SYSTEMATIC_NAME>
methyl 7-methyl-5,6,7-tris(oxidanyl)-1-oxidanylidene-4a,5,6,7a-tetrahydrocyclopenta[c]pyran-4-carboxylate

> <PUBCHEM_IUPAC_TRADITIONAL_NAME>
5,6,7-trihydroxy-1-keto-7-methyl-4a,5,6,7a-tetrahydrocyclopenta[c]pyran-4-carboxylic acid methyl ester

> <PUBCHEM_IUPAC_INCHI>
InChI=1S/C11H14O7/c1-11(16)6-5(7(12)8(11)13)4(9(14)17-2)3-18-10(6)15/h3,5-8,12-13,16H,1-2H3

> <PUBCHEM_IUPAC_INCHIKEY>
QWQJCCRASRUSDH-UHFFFAOYSA-N

> <PUBCHEM_XLOGP3_AA>
-2

> <PUBCHEM_EXACT_MASS>
258.07395278

> <PUBCHEM_MOLECULAR_FORMULA>
C11H14O7

> <PUBCHEM_MOLECULAR_WEIGHT>
258.22

> <PUBCHEM_OPENEYE_CAN_SMILES>
CC1(C2C(C(C1O)O)C(=COC2=O)C(=O)OC)O

> <PUBCHEM_OPENEYE_ISO_SMILES>
CC1(C2C(C(C1O)O)C(=COC2=O)C(=O)OC)O

> <PUBCHEM_CACTVS_TPSA>
113

> <PUBCHEM_MONOISOTOPIC_WEIGHT>
258.07395278

> <PUBCHEM_TOTAL_CHARGE>
0

> <PUBCHEM_HEAVY_ATOM_COUNT>
18

> <PUBCHEM_ATOM_DEF_STEREO_COUNT>
0

> <PUBCHEM_ATOM_UDEF_STEREO_COUNT>
5

> <PUBCHEM_BOND_DEF_STEREO_COUNT>
0

> <PUBCHEM_BOND_UDEF_STEREO_COUNT>
0

> <PUBCHEM_ISOTOPIC_ATOM_COUNT>
0

> <PUBCHEM_COMPONENT_COUNT>
1

> <PUBCHEM_CACTVS_TAUTO_COUNT>
2

> <PUBCHEM_COORDINATE_TYPE>
1
5
255

> <PUBCHEM_BONDANNOTATIONS>
8  1  3
10  20  3
11  21  3
12  22  3
9  19  3

$$$$
