 
  -OEChem-10192104022D

 67 67  0     1  0  0  0  0  0999 V2000
    5.4641   -1.0000    0.0000 O   0  0  0  0  0  0  0  0  0  0  0  0
    5.4641   -4.0000    0.0000 O   0  0  0  0  0  0  0  0  0  0  0  0
    3.7320   -3.0000    0.0000 O   0  0  0  0  0  0  0  0  0  0  0  0
    7.1962   -3.0000    0.0000 O   0  0  0  0  0  0  0  0  0  0  0  0
    7.1962   -1.0000    0.0000 O   0  0  0  0  0  0  0  0  0  0  0  0
    3.7320   -0.0000    0.0000 O   0  0  0  0  0  0  0  0  0  0  0  0
    3.7320   -4.0000    0.0000 O   0  0  0  0  0  0  0  0  0  0  0  0
    2.8660   -1.5000    0.0000 O   0  0  0  0  0  0  0  0  0  0  0  0
    8.0622   -1.5000    0.0000 O   0  0  0  0  0  0  0  0  0  0  0  0
    2.0000    0.0000    0.0000 O   0  0  0  0  0  0  0  0  0  0  0  0
    5.4641   -3.0000    0.0000 C   0  0  1  0  0  0  0  0  0  0  0  0
    4.5981   -2.5000    0.0000 C   0  0  1  0  0  0  0  0  0  0  0  0
    6.3301   -2.5000    0.0000 C   0  0  2  0  0  0  0  0  0  0  0  0
    4.5981   -1.5000    0.0000 C   0  0  1  0  0  0  0  0  0  0  0  0
    6.3301   -1.5000    0.0000 C   0  0  1  0  0  0  0  0  0  0  0  0
    3.7320   -1.0000    0.0000 C   0  0  0  0  0  0  0  0  0  0  0  0
    4.5981   -4.5000    0.0000 C   0  0  0  0  0  0  0  0  0  0  0  0
    2.8660   -2.5000    0.0000 C   0  0  0  0  0  0  0  0  0  0  0  0
    7.1962   -0.0000    0.0000 C   0  0  0  0  0  0  0  0  0  0  0  0
    8.0622   -2.5000    0.0000 C   0  0  0  0  0  0  0  0  0  0  0  0
    4.5981   -5.5000    0.0000 C   0  0  0  0  0  0  0  0  0  0  0  0
    2.0000   -3.0000    0.0000 C   0  0  0  0  0  0  0  0  0  0  0  0
    2.8660    0.5000    0.0000 C   0  0  0  0  0  0  0  0  0  0  0  0
    8.9282   -3.0000    0.0000 C   0  0  0  0  0  0  0  0  0  0  0  0
    8.0622    0.5000    0.0000 C   0  0  0  0  0  0  0  0  0  0  0  0
   10.6603    3.0000    0.0000 C   0  0  0  0  0  0  0  0  0  0  0  0
    9.7942    2.5000    0.0000 C   0  0  0  0  0  0  0  0  0  0  0  0
    2.8660    1.5000    0.0000 C   0  0  0  0  0  0  0  0  0  0  0  0
    9.7942    1.5000    0.0000 C   0  0  0  0  0  0  0  0  0  0  0  0
   10.6603    4.0000    0.0000 C   0  0  0  0  0  0  0  0  0  0  0  0
    8.9282    1.0000    0.0000 C   0  0  0  0  0  0  0  0  0  0  0  0
   11.5263    4.5000    0.0000 C   0  0  0  0  0  0  0  0  0  0  0  0
   11.5263    5.5000    0.0000 C   0  0  0  0  0  0  0  0  0  0  0  0
    4.9272   -3.3100    0.0000 H   0  0  0  0  0  0  0  0  0  0  0  0
    4.5981   -3.1200    0.0000 H   0  0  0  0  0  0  0  0  0  0  0  0
    6.3301   -3.1200    0.0000 H   0  0  0  0  0  0  0  0  0  0  0  0
    4.5981   -0.8800    0.0000 H   0  0  0  0  0  0  0  0  0  0  0  0
    6.3301   -0.8800    0.0000 H   0  0  0  0  0  0  0  0  0  0  0  0
    3.1215   -0.8923    0.0000 H   0  0  0  0  0  0  0  0  0  0  0  0
    3.5200   -1.5826    0.0000 H   0  0  0  0  0  0  0  0  0  0  0  0
    6.9841    0.5826    0.0000 H   0  0  0  0  0  0  0  0  0  0  0  0
    6.5856   -0.1077    0.0000 H   0  0  0  0  0  0  0  0  0  0  0  0
    3.9781   -5.5000    0.0000 H   0  0  0  0  0  0  0  0  0  0  0  0
    4.5981   -6.1200    0.0000 H   0  0  0  0  0  0  0  0  0  0  0  0
    5.2181   -5.5000    0.0000 H   0  0  0  0  0  0  0  0  0  0  0  0
    1.6900   -2.4631    0.0000 H   0  0  0  0  0  0  0  0  0  0  0  0
    1.4631   -3.3100    0.0000 H   0  0  0  0  0  0  0  0  0  0  0  0
    2.3100   -3.5369    0.0000 H   0  0  0  0  0  0  0  0  0  0  0  0
    8.6182   -3.5369    0.0000 H   0  0  0  0  0  0  0  0  0  0  0  0
    9.4651   -3.3100    0.0000 H   0  0  0  0  0  0  0  0  0  0  0  0
    9.2382   -2.4631    0.0000 H   0  0  0  0  0  0  0  0  0  0  0  0
   10.8723    2.4174    0.0000 H   0  0  0  0  0  0  0  0  0  0  0  0
   11.2708    3.1077    0.0000 H   0  0  0  0  0  0  0  0  0  0  0  0
    9.5822    3.0826    0.0000 H   0  0  0  0  0  0  0  0  0  0  0  0
    9.1836    2.3923    0.0000 H   0  0  0  0  0  0  0  0  0  0  0  0
   10.4482    4.5826    0.0000 H   0  0  0  0  0  0  0  0  0  0  0  0
   10.0497    3.8923    0.0000 H   0  0  0  0  0  0  0  0  0  0  0  0
   10.0063    0.9174    0.0000 H   0  0  0  0  0  0  0  0  0  0  0  0
   10.4048    1.6077    0.0000 H   0  0  0  0  0  0  0  0  0  0  0  0
    3.4860    1.5000    0.0000 H   0  0  0  0  0  0  0  0  0  0  0  0
    2.8660    2.1200    0.0000 H   0  0  0  0  0  0  0  0  0  0  0  0
    2.2460    1.5000    0.0000 H   0  0  0  0  0  0  0  0  0  0  0  0
   11.7383    3.9174    0.0000 H   0  0  0  0  0  0  0  0  0  0  0  0
   12.1369    4.6077    0.0000 H   0  0  0  0  0  0  0  0  0  0  0  0
   12.1463    5.5000    0.0000 H   0  0  0  0  0  0  0  0  0  0  0  0
   11.5263    6.1200    0.0000 H   0  0  0  0  0  0  0  0  0  0  0  0
   10.9063    5.5000    0.0000 H   0  0  0  0  0  0  0  0  0  0  0  0
  1 14  1  0  0  0  0
  1 15  1  0  0  0  0
 11  2  1  1  0  0  0
  2 17  1  0  0  0  0
 12  3  1  6  0  0  0
  3 18  1  0  0  0  0
 13  4  1  6  0  0  0
  4 20  1  0  0  0  0
 15  5  1  1  0  0  0
  5 19  1  0  0  0  0
  6 16  1  0  0  0  0
  6 23  1  0  0  0  0
  7 17  2  0  0  0  0
  8 18  2  0  0  0  0
  9 20  2  0  0  0  0
 10 23  2  0  0  0  0
 11 12  1  0  0  0  0
 11 13  1  0  0  0  0
 11 34  1  0  0  0  0
 12 14  1  0  0  0  0
 12 35  1  0  0  0  0
 13 15  1  0  0  0  0
 13 36  1  0  0  0  0
 14 16  1  1  0  0  0
 14 37  1  0  0  0  0
 15 38  1  0  0  0  0
 16 39  1  0  0  0  0
 16 40  1  0  0  0  0
 17 21  1  0  0  0  0
 18 22  1  0  0  0  0
 19 25  1  0  0  0  0
 19 41  1  0  0  0  0
 19 42  1  0  0  0  0
 20 24  1  0  0  0  0
 21 43  1  0  0  0  0
 21 44  1  0  0  0  0
 21 45  1  0  0  0  0
 22 46  1  0  0  0  0
 22 47  1  0  0  0  0
 22 48  1  0  0  0  0
 23 28  1  0  0  0  0
 24 49  1  0  0  0  0
 24 50  1  0  0  0  0
 24 51  1  0  0  0  0
 25 31  3  0  0  0  0
 26 27  1  0  0  0  0
 26 30  1  0  0  0  0
 26 52  1  0  0  0  0
 26 53  1  0  0  0  0
 27 29  1  0  0  0  0
 27 54  1  0  0  0  0
 27 55  1  0  0  0  0
 28 60  1  0  0  0  0
 28 61  1  0  0  0  0
 28 62  1  0  0  0  0
 29 31  1  0  0  0  0
 29 58  1  0  0  0  0
 29 59  1  0  0  0  0
 30 32  1  0  0  0  0
 30 56  1  0  0  0  0
 30 57  1  0  0  0  0
 32 33  1  0  0  0  0
 32 63  1  0  0  0  0
 32 64  1  0  0  0  0
 33 65  1  0  0  0  0
 33 66  1  0  0  0  0
 33 67  1  0  0  0  0
M  END
> <PUBCHEM_COMPOUND_CID>
11048969

> <PUBCHEM_COMPOUND_CANONICALIZED>
1

> <PUBCHEM_CACTVS_COMPLEXITY>
734

> <PUBCHEM_CACTVS_HBOND_ACCEPTOR>
10

> <PUBCHEM_CACTVS_HBOND_DONOR>
0

> <PUBCHEM_CACTVS_ROTATABLE_BOND>
15

> <PUBCHEM_CACTVS_SUBSKEYS>
AAADcfB4PAAAAAAAAAAAAAAAAAAAAAAAAAAkAAAAAAAAAAAAAAAAGgAAAAAACBSwgAMCCAAABABIEACQCAgAAAAAAAAAAAAAAAARAAIAAAAiAAAFAAAGAAHA4AwAAAAAAAAAAAAAAAAAAAAAAAAAAAAAAA==

> <PUBCHEM_IUPAC_OPENEYE_NAME>
[(2R,3R,4S,5R,6R)-3,4,5-triacetoxy-6-non-2-ynoxy-tetrahydropyran-2-yl]methyl acetate

> <PUBCHEM_IUPAC_CAS_NAME>
acetic acid [(2R,3R,4S,5R,6R)-3,4,5-triacetyloxy-6-non-2-ynoxy-2-oxanyl]methyl ester

> <PUBCHEM_IUPAC_NAME_MARKUP>
[(2<I>R</I>,3<I>R</I>,4<I>S</I>,5<I>R</I>,6<I>R</I>)-3,4,5-triacetyloxy-6-non-2-ynoxyoxan-2-yl]methyl acetate

> <PUBCHEM_IUPAC_NAME>
[(2R,3R,4S,5R,6R)-3,4,5-triacetyloxy-6-non-2-ynoxyoxan-2-yl]methyl acetate

> <PUBCHEM_IUPAC_SYSTEMATIC_NAME>
[(2R,3R,4S,5R,6R)-3,4,5-triacetyloxy-6-non-2-ynoxy-oxan-2-yl]methyl ethanoate

> <PUBCHEM_IUPAC_TRADITIONAL_NAME>
acetic acid [(2R,3R,4S,5R,6R)-3,4,5-triacetoxy-6-non-2-ynoxy-tetrahydropyran-2-yl]methyl ester

> <PUBCHEM_IUPAC_INCHI>
InChI=1S/C23H34O10/c1-6-7-8-9-10-11-12-13-28-23-22(32-18(5)27)21(31-17(4)26)20(30-16(3)25)19(33-23)14-29-15(2)24/h19-23H,6-10,13-14H2,1-5H3/t19-,20-,21+,22-,23-/m1/s1

> <PUBCHEM_IUPAC_INCHIKEY>
TZNCJTUZZSJKCW-XNBWIAOKSA-N

> <PUBCHEM_XLOGP3>
3.8

> <PUBCHEM_EXACT_MASS>
470.21519728

> <PUBCHEM_MOLECULAR_FORMULA>
C23H34O10

> <PUBCHEM_MOLECULAR_WEIGHT>
470.5

> <PUBCHEM_OPENEYE_CAN_SMILES>
CCCCCCC#CCOC1C(C(C(C(O1)COC(=O)C)OC(=O)C)OC(=O)C)OC(=O)C

> <PUBCHEM_OPENEYE_ISO_SMILES>
CCCCCCC#CCO[C@H]1[C@@H]([C@H]([C@@H]([C@H](O1)COC(=O)C)OC(=O)C)OC(=O)C)OC(=O)C

> <PUBCHEM_CACTVS_TPSA>
124

> <PUBCHEM_MONOISOTOPIC_WEIGHT>
470.21519728

> <PUBCHEM_TOTAL_CHARGE>
0

> <PUBCHEM_HEAVY_ATOM_COUNT>
33

> <PUBCHEM_ATOM_DEF_STEREO_COUNT>
5

> <PUBCHEM_ATOM_UDEF_STEREO_COUNT>
0

> <PUBCHEM_BOND_DEF_STEREO_COUNT>
0

> <PUBCHEM_BOND_UDEF_STEREO_COUNT>
0

> <PUBCHEM_ISOTOPIC_ATOM_COUNT>
0

> <PUBCHEM_COMPONENT_COUNT>
1

> <PUBCHEM_CACTVS_TAUTO_COUNT>
-1

> <PUBCHEM_COORDINATE_TYPE>
1
5
255

> <PUBCHEM_BONDANNOTATIONS>
14  16  5
11  2  5
12  3  6
13  4  6
15  5  5

$$$$
