 
  -OEChem-10192103462D

 24 24  0     1  0  0  0  0  0999 V2000
    5.1114    0.7392    0.0000 O   0  0  0  0  0  0  0  0  0  0  0  0
    3.4043    2.4463    0.0000 O   0  0  0  0  0  0  0  0  0  0  0  0
    2.4384    0.2910    0.0000 O   0  0  0  0  0  0  0  0  0  0  0  0
    5.8186    2.4463    0.0000 O   0  0  0  0  0  0  0  0  0  0  0  0
    4.6291   -1.1926    0.0000 O   0  0  0  0  0  0  0  0  0  0  0  0
    3.2149   -2.6068    0.0000 O   0  0  0  0  0  0  0  0  0  0  0  0
    4.1114    0.7392    0.0000 C   0  0  2  0  0  0  0  0  0  0  0  0
    4.1114    1.7392    0.0000 C   0  0  1  0  0  0  0  0  0  0  0  0
    3.4043    0.0321    0.0000 C   0  0  1  0  0  0  0  0  0  0  0  0
    5.1114    1.7392    0.0000 C   0  0  1  0  0  0  0  0  0  0  0  0
    3.6632   -0.9338    0.0000 C   0  0  1  0  0  0  0  0  0  0  0  0
    2.9560   -1.6409    0.0000 C   0  0  0  0  0  0  0  0  0  0  0  0
    4.4367   -0.0461    0.0000 H   0  0  0  0  0  0  0  0  0  0  0  0
    4.3487    2.3120    0.0000 H   0  0  0  0  0  0  0  0  0  0  0  0
    2.9659   -0.4063    0.0000 H   0  0  0  0  0  0  0  0  0  0  0  0
    4.8742    2.3120    0.0000 H   0  0  0  0  0  0  0  0  0  0  0  0
    3.8236   -1.5327    0.0000 H   0  0  0  0  0  0  0  0  0  0  0  0
    2.6004   -1.1330    0.0000 H   0  0  0  0  0  0  0  0  0  0  0  0
    2.3941   -1.9029    0.0000 H   0  0  0  0  0  0  0  0  0  0  0  0
    3.5648    3.0452    0.0000 H   0  0  0  0  0  0  0  0  0  0  0  0
    2.0000   -0.1474    0.0000 H   0  0  0  0  0  0  0  0  0  0  0  0
    6.4174    2.2859    0.0000 H   0  0  0  0  0  0  0  0  0  0  0  0
    4.7895   -1.7915    0.0000 H   0  0  0  0  0  0  0  0  0  0  0  0
    2.7765   -3.0452    0.0000 H   0  0  0  0  0  0  0  0  0  0  0  0
  1  7  1  0  0  0  0
  1 10  1  0  0  0  0
  8  2  1  6  0  0  0
  2 20  1  0  0  0  0
  9  3  1  1  0  0  0
  3 21  1  0  0  0  0
 10  4  1  6  0  0  0
  4 22  1  0  0  0  0
 11  5  1  6  0  0  0
  5 23  1  0  0  0  0
  6 12  1  0  0  0  0
  6 24  1  0  0  0  0
  7  8  1  0  0  0  0
  7  9  1  0  0  0  0
  7 13  1  6  0  0  0
  8 10  1  0  0  0  0
  8 14  1  0  0  0  0
  9 11  1  0  0  0  0
  9 15  1  0  0  0  0
 10 16  1  0  0  0  0
 11 12  1  0  0  0  0
 11 17  1  0  0  0  0
 12 18  1  0  0  0  0
 12 19  1  0  0  0  0
M  END
> <PUBCHEM_COMPOUND_CID>
101605266

> <PUBCHEM_COMPOUND_CANONICALIZED>
1

> <PUBCHEM_CACTVS_COMPLEXITY>
151

> <PUBCHEM_CACTVS_HBOND_ACCEPTOR>
6

> <PUBCHEM_CACTVS_HBOND_DONOR>
5

> <PUBCHEM_CACTVS_ROTATABLE_BOND>
3

> <PUBCHEM_CACTVS_SUBSKEYS>
AAADccBgOAAAAAAAAAAAAAAAAABIAAAAAAAAAAAAAAAAAAAAAAAAGgAACAAACBSwgAMACAAABgAAAAAAAAAAAAAAAAAAAAAAAAAREAIAAAACQAAFAAAHAAHAYAQAAAAAAAAAAAAAAAAAAAAAAAAAAAAAAA==

> <PUBCHEM_IUPAC_OPENEYE_NAME>
(1R,2R)-1-[(2S,3S,4R)-3,4-dihydroxyoxetan-2-yl]propane-1,2,3-triol

> <PUBCHEM_IUPAC_CAS_NAME>
(1R,2R)-1-[(2S,3S,4R)-3,4-dihydroxy-2-oxetanyl]propane-1,2,3-triol

> <PUBCHEM_IUPAC_NAME_MARKUP>
(1<I>R</I>,2<I>R</I>)-1-[(2<I>S</I>,3<I>S</I>,4<I>R</I>)-3,4-dihydroxyoxetan-2-yl]propane-1,2,3-triol

> <PUBCHEM_IUPAC_NAME>
(1R,2R)-1-[(2S,3S,4R)-3,4-dihydroxyoxetan-2-yl]propane-1,2,3-triol

> <PUBCHEM_IUPAC_SYSTEMATIC_NAME>
(1R,2R)-1-[(2S,3S,4R)-3,4-bis(oxidanyl)oxetan-2-yl]propane-1,2,3-triol

> <PUBCHEM_IUPAC_TRADITIONAL_NAME>
(1R,2R)-1-[(2S,3S,4R)-3,4-dihydroxyoxetan-2-yl]propane-1,2,3-triol

> <PUBCHEM_IUPAC_INCHI>
InChI=1S/C6H12O6/c7-1-2(8)3(9)5-4(10)6(11)12-5/h2-11H,1H2/t2-,3-,4+,5+,6-/m1/s1

> <PUBCHEM_IUPAC_INCHIKEY>
HSKFDMUXTCPHCB-RWOPYEJCSA-N

> <PUBCHEM_XLOGP3_AA>
-2.6

> <PUBCHEM_EXACT_MASS>
180.06338810

> <PUBCHEM_MOLECULAR_FORMULA>
C6H12O6

> <PUBCHEM_MOLECULAR_WEIGHT>
180.16

> <PUBCHEM_OPENEYE_CAN_SMILES>
C(C(C(C1C(C(O1)O)O)O)O)O

> <PUBCHEM_OPENEYE_ISO_SMILES>
C([C@H]([C@H]([C@H]1[C@@H]([C@@H](O1)O)O)O)O)O

> <PUBCHEM_CACTVS_TPSA>
110

> <PUBCHEM_MONOISOTOPIC_WEIGHT>
180.06338810

> <PUBCHEM_TOTAL_CHARGE>
0

> <PUBCHEM_HEAVY_ATOM_COUNT>
12

> <PUBCHEM_ATOM_DEF_STEREO_COUNT>
5

> <PUBCHEM_ATOM_UDEF_STEREO_COUNT>
0

> <PUBCHEM_BOND_DEF_STEREO_COUNT>
0

> <PUBCHEM_BOND_UDEF_STEREO_COUNT>
0

> <PUBCHEM_ISOTOPIC_ATOM_COUNT>
0

> <PUBCHEM_COMPONENT_COUNT>
1

> <PUBCHEM_CACTVS_TAUTO_COUNT>
-1

> <PUBCHEM_COORDINATE_TYPE>
1
5
255

> <PUBCHEM_BONDANNOTATIONS>
8  2  6
9  3  5
10  4  6
11  5  6
7  13  6

$$$$
