 
  -OEChem-10192104272D

 74 75  0     1  0  0  0  0  0999 V2000
    6.0010   -4.5000    0.0000 O   0  0  0  0  0  0  0  0  0  0  0  0
    7.7331   -2.5000    0.0000 O   0  0  0  0  0  0  0  0  0  0  0  0
    5.1350   -3.0000    0.0000 O   0  0  0  0  0  0  0  0  0  0  0  0
    7.7331   -5.5000    0.0000 O   0  0  0  0  0  0  0  0  0  0  0  0
    9.4651   -2.5000    0.0000 O   0  0  0  0  0  0  0  0  0  0  0  0
    9.4651   -4.5000    0.0000 O   0  0  0  0  0  0  0  0  0  0  0  0
    4.2690   -5.5000    0.0000 O   0  0  0  0  0  0  0  0  0  0  0  0
    2.5369   -4.5000    0.0000 O   0  0  0  0  0  0  0  0  0  0  0  0
    2.5369   -2.5000    0.0000 O   0  0  0  0  0  0  0  0  0  0  0  0
    6.0010   -1.5000    0.0000 O   0  0  0  0  0  0  0  0  0  0  0  0
    5.1350   -1.0000    0.0000 O   0  0  0  0  0  0  0  0  0  0  0  0
    6.8671   -4.0000    0.0000 C   0  0  1  0  0  0  0  0  0  0  0  0
    7.7331   -4.5000    0.0000 C   0  0  1  0  0  0  0  0  0  0  0  0
    6.8671   -3.0000    0.0000 C   0  0  1  0  0  0  0  0  0  0  0  0
    5.1350   -4.0000    0.0000 C   0  0  2  0  0  0  0  0  0  0  0  0
    8.5991   -4.0000    0.0000 C   0  0  2  0  0  0  0  0  0  0  0  0
    4.2690   -4.5000    0.0000 C   0  0  1  0  0  0  0  0  0  0  0  0
    3.4030   -4.0000    0.0000 C   0  0  2  0  0  0  0  0  0  0  0  0
    8.5991   -3.0000    0.0000 C   0  0  1  0  0  0  0  0  0  0  0  0
    3.4030   -3.0000    0.0000 C   0  0  2  0  0  0  0  0  0  0  0  0
    4.2690   -2.5000    0.0000 C   0  0  1  0  0  0  0  0  0  0  0  0
    6.0010   -2.5000    0.0000 C   0  0  0  0  0  0  0  0  0  0  0  0
    4.2690   -1.5000    0.0000 C   0  0  0  0  0  0  0  0  0  0  0  0
    9.4651   -1.5000    0.0000 C   0  0  0  0  0  0  0  0  0  0  0  0
   10.3312   -1.0000    0.0000 C   0  0  0  0  0  0  0  0  0  0  0  0
   10.3312    0.0000    0.0000 C   0  0  0  0  0  0  0  0  0  0  0  0
   11.1972    0.5000    0.0000 C   0  0  0  0  0  0  0  0  0  0  0  0
   11.1972    1.5000    0.0000 C   0  0  0  0  0  0  0  0  0  0  0  0
   12.0632    2.0000    0.0000 C   0  0  0  0  0  0  0  0  0  0  0  0
   12.0632    3.0000    0.0000 C   0  0  0  0  0  0  0  0  0  0  0  0
   12.9292    3.5000    0.0000 C   0  0  0  0  0  0  0  0  0  0  0  0
   12.9292    4.5000    0.0000 C   0  0  0  0  0  0  0  0  0  0  0  0
   13.7953    5.0000    0.0000 C   0  0  0  0  0  0  0  0  0  0  0  0
   14.6613    5.5000    0.0000 C   0  0  0  0  0  0  0  0  0  0  0  0
    6.3301   -3.6900    0.0000 H   0  0  0  0  0  0  0  0  0  0  0  0
    7.1962   -4.8100    0.0000 H   0  0  0  0  0  0  0  0  0  0  0  0
    6.8671   -2.3800    0.0000 H   0  0  0  0  0  0  0  0  0  0  0  0
    5.1350   -4.6200    0.0000 H   0  0  0  0  0  0  0  0  0  0  0  0
    8.5991   -4.6200    0.0000 H   0  0  0  0  0  0  0  0  0  0  0  0
    3.7320   -4.8100    0.0000 H   0  0  0  0  0  0  0  0  0  0  0  0
    2.8660   -3.6900    0.0000 H   0  0  0  0  0  0  0  0  0  0  0  0
    8.5991   -2.3800    0.0000 H   0  0  0  0  0  0  0  0  0  0  0  0
    3.4030   -2.3800    0.0000 H   0  0  0  0  0  0  0  0  0  0  0  0
    4.8059   -2.1900    0.0000 H   0  0  0  0  0  0  0  0  0  0  0  0
    5.3905   -2.3923    0.0000 H   0  0  0  0  0  0  0  0  0  0  0  0
    5.7890   -3.0826    0.0000 H   0  0  0  0  0  0  0  0  0  0  0  0
    4.0569   -0.9174    0.0000 H   0  0  0  0  0  0  0  0  0  0  0  0
    3.6584   -1.6077    0.0000 H   0  0  0  0  0  0  0  0  0  0  0  0
    8.2700   -5.8100    0.0000 H   0  0  0  0  0  0  0  0  0  0  0  0
   10.0021   -4.1900    0.0000 H   0  0  0  0  0  0  0  0  0  0  0  0
    3.7320   -5.8100    0.0000 H   0  0  0  0  0  0  0  0  0  0  0  0
    9.2531   -0.9174    0.0000 H   0  0  0  0  0  0  0  0  0  0  0  0
    8.8546   -1.6077    0.0000 H   0  0  0  0  0  0  0  0  0  0  0  0
    2.0000   -4.1900    0.0000 H   0  0  0  0  0  0  0  0  0  0  0  0
    2.5369   -1.8800    0.0000 H   0  0  0  0  0  0  0  0  0  0  0  0
   10.5432   -1.5826    0.0000 H   0  0  0  0  0  0  0  0  0  0  0  0
   10.9417   -0.8923    0.0000 H   0  0  0  0  0  0  0  0  0  0  0  0
   10.1191    0.5826    0.0000 H   0  0  0  0  0  0  0  0  0  0  0  0
    9.7206   -0.1077    0.0000 H   0  0  0  0  0  0  0  0  0  0  0  0
    6.5380   -1.1900    0.0000 H   0  0  0  0  0  0  0  0  0  0  0  0
   11.4092   -0.0826    0.0000 H   0  0  0  0  0  0  0  0  0  0  0  0
   11.8078    0.6077    0.0000 H   0  0  0  0  0  0  0  0  0  0  0  0
    5.1350   -0.3800    0.0000 H   0  0  0  0  0  0  0  0  0  0  0  0
   10.9851    2.0826    0.0000 H   0  0  0  0  0  0  0  0  0  0  0  0
   10.5866    1.3923    0.0000 H   0  0  0  0  0  0  0  0  0  0  0  0
   12.2753    1.4174    0.0000 H   0  0  0  0  0  0  0  0  0  0  0  0
   12.6738    2.1077    0.0000 H   0  0  0  0  0  0  0  0  0  0  0  0
   11.8512    3.5826    0.0000 H   0  0  0  0  0  0  0  0  0  0  0  0
   11.4526    2.8923    0.0000 H   0  0  0  0  0  0  0  0  0  0  0  0
   13.1413    2.9174    0.0000 H   0  0  0  0  0  0  0  0  0  0  0  0
   13.5398    3.6077    0.0000 H   0  0  0  0  0  0  0  0  0  0  0  0
   12.7172    5.0826    0.0000 H   0  0  0  0  0  0  0  0  0  0  0  0
   12.3187    4.3923    0.0000 H   0  0  0  0  0  0  0  0  0  0  0  0
   15.1982    5.8100    0.0000 H   0  0  0  0  0  0  0  0  0  0  0  0
 12  1  1  6  0  0  0
 15  1  1  1  0  0  0
  2 14  1  0  0  0  0
  2 19  1  0  0  0  0
  3 15  1  0  0  0  0
  3 21  1  0  0  0  0
 13  4  1  1  0  0  0
  4 49  1  0  0  0  0
 19  5  1  1  0  0  0
  5 24  1  0  0  0  0
 16  6  1  6  0  0  0
  6 50  1  0  0  0  0
 17  7  1  6  0  0  0
  7 51  1  0  0  0  0
 18  8  1  1  0  0  0
  8 54  1  0  0  0  0
 20  9  1  1  0  0  0
  9 55  1  0  0  0  0
 10 22  1  0  0  0  0
 10 60  1  0  0  0  0
 11 23  1  0  0  0  0
 11 63  1  0  0  0  0
 12 13  1  0  0  0  0
 12 14  1  0  0  0  0
 12 35  1  0  0  0  0
 13 16  1  0  0  0  0
 13 36  1  0  0  0  0
 14 22  1  1  0  0  0
 14 37  1  0  0  0  0
 15 17  1  0  0  0  0
 15 38  1  0  0  0  0
 16 19  1  0  0  0  0
 16 39  1  0  0  0  0
 17 18  1  0  0  0  0
 17 40  1  0  0  0  0
 18 20  1  0  0  0  0
 18 41  1  0  0  0  0
 19 42  1  0  0  0  0
 20 21  1  0  0  0  0
 20 43  1  0  0  0  0
 21 23  1  1  0  0  0
 21 44  1  0  0  0  0
 22 45  1  0  0  0  0
 22 46  1  0  0  0  0
 23 47  1  0  0  0  0
 23 48  1  0  0  0  0
 24 25  1  0  0  0  0
 24 52  1  0  0  0  0
 24 53  1  0  0  0  0
 25 26  1  0  0  0  0
 25 56  1  0  0  0  0
 25 57  1  0  0  0  0
 26 27  1  0  0  0  0
 26 58  1  0  0  0  0
 26 59  1  0  0  0  0
 27 28  1  0  0  0  0
 27 61  1  0  0  0  0
 27 62  1  0  0  0  0
 28 29  1  0  0  0  0
 28 64  1  0  0  0  0
 28 65  1  0  0  0  0
 29 30  1  0  0  0  0
 29 66  1  0  0  0  0
 29 67  1  0  0  0  0
 30 31  1  0  0  0  0
 30 68  1  0  0  0  0
 30 69  1  0  0  0  0
 31 32  1  0  0  0  0
 31 70  1  0  0  0  0
 31 71  1  0  0  0  0
 32 33  1  0  0  0  0
 32 72  1  0  0  0  0
 32 73  1  0  0  0  0
 33 34  3  0  0  0  0
 34 74  1  0  0  0  0
M  END
> <PUBCHEM_COMPOUND_CID>
101845047

> <PUBCHEM_COMPOUND_CANONICALIZED>
1

> <PUBCHEM_CACTVS_COMPLEXITY>
611

> <PUBCHEM_CACTVS_HBOND_ACCEPTOR>
11

> <PUBCHEM_CACTVS_HBOND_DONOR>
7

> <PUBCHEM_CACTVS_ROTATABLE_BOND>
14

> <PUBCHEM_CACTVS_SUBSKEYS>
AAADcfB4PAAAAAAAAAAAAAAAAAAAAAAAAAAkSAAAAAAAAAAAAAAAGgAACAAACBSwgAMACAAABgBAGAAAAAgAAAAAAAAAAAAAAAAREAIAAAAiQAAFAAAHAAHA4KwAAAAAAAAAAAAAAAAAAAAAAAAAAAAAAA==

> <PUBCHEM_IUPAC_OPENEYE_NAME>
(2S,3R,4S,5R,6R)-2-[(2R,3S,4R,5R,6R)-4,5-dihydroxy-2-(hydroxymethyl)-6-undec-10-ynoxy-tetrahydropyran-3-yl]oxy-6-(hydroxymethyl)tetrahydropyran-3,4,5-triol

> <PUBCHEM_IUPAC_CAS_NAME>
(2S,3R,4S,5R,6R)-2-[[(2R,3S,4R,5R,6R)-4,5-dihydroxy-2-(hydroxymethyl)-6-undec-10-ynoxy-3-oxanyl]oxy]-6-(hydroxymethyl)oxane-3,4,5-triol

> <PUBCHEM_IUPAC_NAME_MARKUP>
(2<I>S</I>,3<I>R</I>,4<I>S</I>,5<I>R</I>,6<I>R</I>)-2-[(2<I>R</I>,3<I>S</I>,4<I>R</I>,5<I>R</I>,6<I>R</I>)-4,5-dihydroxy-2-(hydroxymethyl)-6-undec-10-ynoxyoxan-3-yl]oxy-6-(hydroxymethyl)oxane-3,4,5-triol

> <PUBCHEM_IUPAC_NAME>
(2S,3R,4S,5R,6R)-2-[(2R,3S,4R,5R,6R)-4,5-dihydroxy-2-(hydroxymethyl)-6-undec-10-ynoxyoxan-3-yl]oxy-6-(hydroxymethyl)oxane-3,4,5-triol

> <PUBCHEM_IUPAC_SYSTEMATIC_NAME>
(2R,3R,4S,5R,6S)-2-(hydroxymethyl)-6-[(2R,3S,4R,5R,6R)-2-(hydroxymethyl)-4,5-bis(oxidanyl)-6-undec-10-ynoxy-oxan-3-yl]oxy-oxane-3,4,5-triol

> <PUBCHEM_IUPAC_TRADITIONAL_NAME>
(2S,3R,4S,5R,6R)-2-[(2R,3S,4R,5R,6R)-4,5-dihydroxy-2-methylol-6-undec-10-ynoxy-tetrahydropyran-3-yl]oxy-6-methylol-tetrahydropyran-3,4,5-triol

> <PUBCHEM_IUPAC_INCHI>
InChI=1S/C23H40O11/c1-2-3-4-5-6-7-8-9-10-11-31-22-20(30)18(28)21(15(13-25)33-22)34-23-19(29)17(27)16(26)14(12-24)32-23/h1,14-30H,3-13H2/t14-,15-,16+,17+,18-,19-,20-,21-,22-,23+/m1/s1

> <PUBCHEM_IUPAC_INCHIKEY>
UYDXGLBIVCUXQG-QFAHURJDSA-N

> <PUBCHEM_XLOGP3_AA>
-0.2

> <PUBCHEM_EXACT_MASS>
492.25706209

> <PUBCHEM_MOLECULAR_FORMULA>
C23H40O11

> <PUBCHEM_MOLECULAR_WEIGHT>
492.6

> <PUBCHEM_OPENEYE_CAN_SMILES>
C#CCCCCCCCCCOC1C(C(C(C(O1)CO)OC2C(C(C(C(O2)CO)O)O)O)O)O

> <PUBCHEM_OPENEYE_ISO_SMILES>
C#CCCCCCCCCCO[C@H]1[C@@H]([C@H]([C@@H]([C@H](O1)CO)O[C@H]2[C@@H]([C@H]([C@H]([C@H](O2)CO)O)O)O)O)O

> <PUBCHEM_CACTVS_TPSA>
179

> <PUBCHEM_MONOISOTOPIC_WEIGHT>
492.25706209

> <PUBCHEM_TOTAL_CHARGE>
0

> <PUBCHEM_HEAVY_ATOM_COUNT>
34

> <PUBCHEM_ATOM_DEF_STEREO_COUNT>
10

> <PUBCHEM_ATOM_UDEF_STEREO_COUNT>
0

> <PUBCHEM_BOND_DEF_STEREO_COUNT>
0

> <PUBCHEM_BOND_UDEF_STEREO_COUNT>
0

> <PUBCHEM_ISOTOPIC_ATOM_COUNT>
0

> <PUBCHEM_COMPONENT_COUNT>
1

> <PUBCHEM_CACTVS_TAUTO_COUNT>
-1

> <PUBCHEM_COORDINATE_TYPE>
1
5
255

> <PUBCHEM_BONDANNOTATIONS>
12  1  6
15  1  5
14  22  5
21  23  5
13  4  5
19  5  5
16  6  6
17  7  6
18  8  5
20  9  5

$$$$
