 
  -OEChem-10192103462D

 55 57  0     1  0  0  0  0  0999 V2000
    7.9244    0.8862    0.0000 S   0  0  0  0  0  0  0  0  0  0  0  0
    4.2746    3.6572    0.0000 S   0  0  0  0  0  0  0  0  0  0  0  0
    6.8994    3.3253    0.0000 S   0  0  0  0  0  0  0  0  0  0  0  0
    7.2566    1.6305    0.0000 O   0  0  0  0  0  0  0  0  0  0  0  0
    3.9639    2.7067    0.0000 O   0  0  0  0  0  0  0  0  0  0  0  0
    5.9209    3.1191    0.0000 O   0  0  0  0  0  0  0  0  0  0  0  0
    6.6353   -0.2705    0.0000 O   0  0  0  0  0  0  0  0  0  0  0  0
    3.3426    0.8056    0.0000 O   0  0  0  0  0  0  0  0  0  0  0  0
    8.6688    1.5540    0.0000 O   0  0  0  0  0  0  0  0  0  0  0  0
    7.1802    0.2184    0.0000 O   0  0  0  0  0  0  0  0  0  0  0  0
    3.3240    3.9678    0.0000 O   0  0  0  0  0  0  0  0  0  0  0  0
    5.2251    3.3465    0.0000 O   0  0  0  0  0  0  0  0  0  0  0  0
    6.6932    4.3038    0.0000 O   0  0  0  0  0  0  0  0  0  0  0  0
    7.1056    2.3468    0.0000 O   0  0  0  0  0  0  0  0  0  0  0  0
    2.0000   -3.9877    0.0000 O   0  0  0  0  0  0  0  0  0  0  0  0
    4.6783   -0.6830    0.0000 N   0  0  0  0  0  0  0  0  0  0  0  0
    4.6783   -2.2924    0.0000 N   0  0  0  0  0  0  0  0  0  0  0  0
    2.8660   -0.4877    0.0000 N   0  0  0  0  0  0  0  0  0  0  0  0
    2.0000   -1.9877    0.0000 N   0  0  0  0  0  0  0  0  0  0  0  0
    2.8660   -3.4877    0.0000 N   0  0  0  0  0  0  0  0  0  0  0  0
    4.9889    0.2675    0.0000 C   0  0  0  0  0  0  0  0  0  0  0  0
    5.9674    0.4738    0.0000 C   0  0  1  0  0  0  0  0  0  0  0  0
    4.3211    1.0118    0.0000 C   0  0  2  0  0  0  0  0  0  0  0  0
    6.2781    1.4243    0.0000 C   0  0  1  0  0  0  0  0  0  0  0  0
    4.6318    1.9624    0.0000 C   0  0  2  0  0  0  0  0  0  0  0  0
    5.6103    2.1686    0.0000 C   0  0  0  0  0  0  0  0  0  0  0  0
    3.7320   -0.9877    0.0000 C   0  0  0  0  0  0  0  0  0  0  0  0
    5.2619   -1.4877    0.0000 C   0  0  0  0  0  0  0  0  0  0  0  0
    3.7320   -1.9877    0.0000 C   0  0  0  0  0  0  0  0  0  0  0  0
    8.5923    0.1419    0.0000 C   0  0  0  0  0  0  0  0  0  0  0  0
    4.5852    4.6077    0.0000 C   0  0  0  0  0  0  0  0  0  0  0  0
    7.8779    3.5315    0.0000 C   0  0  0  0  0  0  0  0  0  0  0  0
    2.8660   -2.4877    0.0000 C   0  0  0  0  0  0  0  0  0  0  0  0
    2.0000   -0.9877    0.0000 C   0  0  0  0  0  0  0  0  0  0  0  0
    4.3823    0.1397    0.0000 H   0  0  0  0  0  0  0  0  0  0  0  0
    5.7748   -0.1156    0.0000 H   0  0  0  0  0  0  0  0  0  0  0  0
    4.1285    0.4225    0.0000 H   0  0  0  0  0  0  0  0  0  0  0  0
    6.6922    0.9628    0.0000 H   0  0  0  0  0  0  0  0  0  0  0  0
    4.0251    1.8345    0.0000 H   0  0  0  0  0  0  0  0  0  0  0  0
    6.2169    2.2964    0.0000 H   0  0  0  0  0  0  0  0  0  0  0  0
    6.4427   -0.8599    0.0000 H   0  0  0  0  0  0  0  0  0  0  0  0
    2.9285    1.2671    0.0000 H   0  0  0  0  0  0  0  0  0  0  0  0
    5.8819   -1.4877    0.0000 H   0  0  0  0  0  0  0  0  0  0  0  0
    8.1308   -0.2722    0.0000 H   0  0  0  0  0  0  0  0  0  0  0  0
    9.0064   -0.3196    0.0000 H   0  0  0  0  0  0  0  0  0  0  0  0
    9.0538    0.5560    0.0000 H   0  0  0  0  0  0  0  0  0  0  0  0
    5.1746    4.4151    0.0000 H   0  0  0  0  0  0  0  0  0  0  0  0
    4.7778    5.1970    0.0000 H   0  0  0  0  0  0  0  0  0  0  0  0
    3.9959    4.8003    0.0000 H   0  0  0  0  0  0  0  0  0  0  0  0
    8.0058    2.9249    0.0000 H   0  0  0  0  0  0  0  0  0  0  0  0
    8.4846    3.6594    0.0000 H   0  0  0  0  0  0  0  0  0  0  0  0
    7.7501    4.1382    0.0000 H   0  0  0  0  0  0  0  0  0  0  0  0
    1.4631   -0.6777    0.0000 H   0  0  0  0  0  0  0  0  0  0  0  0
    3.4030   -3.7977    0.0000 H   0  0  0  0  0  0  0  0  0  0  0  0
    2.0000   -4.6077    0.0000 H   0  0  0  0  0  0  0  0  0  0  0  0
  1  4  1  0  0  0  0
  1  9  2  0  0  0  0
  1 10  2  0  0  0  0
  1 30  1  0  0  0  0
  2  5  1  0  0  0  0
  2 11  2  0  0  0  0
  2 12  2  0  0  0  0
  2 31  1  0  0  0  0
  3  6  1  0  0  0  0
  3 13  2  0  0  0  0
  3 14  2  0  0  0  0
  3 32  1  0  0  0  0
 24  4  1  1  0  0  0
 25  5  1  1  0  0  0
  6 26  1  0  0  0  0
 22  7  1  1  0  0  0
  7 41  1  0  0  0  0
 23  8  1  1  0  0  0
  8 42  1  0  0  0  0
 15 20  1  0  0  0  0
 15 55  1  0  0  0  0
 16 21  1  0  0  0  0
 16 27  1  0  0  0  0
 16 28  1  0  0  0  0
 17 28  2  0  0  0  0
 17 29  1  0  0  0  0
 18 27  2  0  0  0  0
 18 34  1  0  0  0  0
 19 33  1  0  0  0  0
 19 34  2  0  0  0  0
 20 33  1  0  0  0  0
 20 54  1  0  0  0  0
 21 22  1  0  0  0  0
 21 23  1  0  0  0  0
 21 35  1  0  0  0  0
 22 24  1  0  0  0  0
 22 36  1  0  0  0  0
 23 25  1  0  0  0  0
 23 37  1  0  0  0  0
 24 26  1  0  0  0  0
 24 38  1  0  0  0  0
 25 26  1  0  0  0  0
 25 39  1  0  0  0  0
 26 40  1  0  0  0  0
 27 29  1  0  0  0  0
 28 43  1  0  0  0  0
 29 33  2  0  0  0  0
 30 44  1  0  0  0  0
 30 45  1  0  0  0  0
 30 46  1  0  0  0  0
 31 47  1  0  0  0  0
 31 48  1  0  0  0  0
 31 49  1  0  0  0  0
 32 50  1  0  0  0  0
 32 51  1  0  0  0  0
 32 52  1  0  0  0  0
 34 53  1  0  0  0  0
M  END
> <PUBCHEM_COMPOUND_CID>
21768540

> <PUBCHEM_COMPOUND_CANONICALIZED>
1

> <PUBCHEM_CACTVS_COMPLEXITY>
992

> <PUBCHEM_CACTVS_HBOND_ACCEPTOR>
16

> <PUBCHEM_CACTVS_HBOND_DONOR>
4

> <PUBCHEM_CACTVS_ROTATABLE_BOND>
8

> <PUBCHEM_CACTVS_SUBSKEYS>
AAADceBzvABgAAAAAAAAAAAAAAAAAWAAAAA8QAAAAAAAAFgB+AAAHgQUCAAACDzhlwaH8L9cEgKgAQZhZHCAgC0REKAhUCAoVBCDWAJAyEAURAgPAALRACHwcAcAAAAAAAAAAAACgAAUAACgAAAAAAAAAA==

> <PUBCHEM_IUPAC_OPENEYE_NAME>
[(1S,2S,4R,5R)-2,4-dihydroxy-3-[6-(hydroxyamino)purin-9-yl]-5,6-bis(methylsulfonyloxy)cyclohexyl] methanesulfonate

> <PUBCHEM_IUPAC_CAS_NAME>
methanesulfonic acid [(1S,2S,4R,5R)-2,4-dihydroxy-3-[6-(hydroxyamino)-9-purinyl]-5,6-bis(methylsulfonyloxy)cyclohexyl] ester

> <PUBCHEM_IUPAC_NAME_MARKUP>
[(1<I>S</I>,2<I>S</I>,4<I>R</I>,5<I>R</I>)-2,4-dihydroxy-3-[6-(hydroxyamino)purin-9-yl]-5,6-bis(methylsulfonyloxy)cyclohexyl] methanesulfonate

> <PUBCHEM_IUPAC_NAME>
[(1S,2S,4R,5R)-2,4-dihydroxy-3-[6-(hydroxyamino)purin-9-yl]-5,6-bis(methylsulfonyloxy)cyclohexyl] methanesulfonate

> <PUBCHEM_IUPAC_SYSTEMATIC_NAME>
[(1S,3R,4R,6S)-2,3-bis(methylsulfonyloxy)-4,6-bis(oxidanyl)-5-[6-(oxidanylamino)purin-9-yl]cyclohexyl] methanesulfonate

> <PUBCHEM_IUPAC_TRADITIONAL_NAME>
methanesulfonic acid [(1S,2S,4R,5R)-2,4-dihydroxy-3-[6-(hydroxyamino)purin-9-yl]-5,6-bis(methylsulfonyloxy)cyclohexyl] ester

> <PUBCHEM_IUPAC_INCHI>
InChI=1S/C14H21N5O12S3/c1-32(23,24)29-10-8(20)7(19-5-17-6-13(18-22)15-4-16-14(6)19)9(21)11(30-33(2,25)26)12(10)31-34(3,27)28/h4-5,7-12,20-22H,1-3H3,(H,15,16,18)/t7?,8-,9+,10-,11+,12?

> <PUBCHEM_IUPAC_INCHIKEY>
NIOBNVWJZCEJEZ-BMACOTTCSA-N

> <PUBCHEM_XLOGP3_AA>
-3.1

> <PUBCHEM_EXACT_MASS>
547.03488464

> <PUBCHEM_MOLECULAR_FORMULA>
C14H21N5O12S3

> <PUBCHEM_MOLECULAR_WEIGHT>
547.5

> <PUBCHEM_OPENEYE_CAN_SMILES>
CS(=O)(=O)OC1C(C(C(C(C1OS(=O)(=O)C)OS(=O)(=O)C)O)N2C=NC3=C(N=CN=C32)NO)O

> <PUBCHEM_OPENEYE_ISO_SMILES>
CS(=O)(=O)O[C@H]1[C@H](C([C@H]([C@H](C1OS(=O)(=O)C)OS(=O)(=O)C)O)N2C=NC3=C(N=CN=C32)NO)O

> <PUBCHEM_CACTVS_TPSA>
272

> <PUBCHEM_MONOISOTOPIC_WEIGHT>
547.03488464

> <PUBCHEM_TOTAL_CHARGE>
0

> <PUBCHEM_HEAVY_ATOM_COUNT>
34

> <PUBCHEM_ATOM_DEF_STEREO_COUNT>
4

> <PUBCHEM_ATOM_UDEF_STEREO_COUNT>
0

> <PUBCHEM_BOND_DEF_STEREO_COUNT>
0

> <PUBCHEM_BOND_UDEF_STEREO_COUNT>
0

> <PUBCHEM_ISOTOPIC_ATOM_COUNT>
0

> <PUBCHEM_COMPONENT_COUNT>
1

> <PUBCHEM_CACTVS_TAUTO_COUNT>
-1

> <PUBCHEM_COORDINATE_TYPE>
1
5
255

> <PUBCHEM_BONDANNOTATIONS>
16  27  8
16  28  8
17  28  8
17  29  8
18  27  8
18  34  8
19  33  8
19  34  8
27  29  8
29  33  8
24  4  5
25  5  5
22  7  5
23  8  5

$$$$
