 
  -OEChem-10192104122D

 60 66  0     1  0  0  0  0  0999 V2000
   11.7197    3.4399    0.0000 O   0  0  0  0  0  0  0  0  0  0  0  0
    3.6954    2.8812    0.0000 O   0  0  0  0  0  0  0  0  0  0  0  0
    2.3606   -0.7544    0.0000 O   0  0  0  0  0  0  0  0  0  0  0  0
    5.4543   -3.2728    0.0000 O   0  0  0  0  0  0  0  0  0  0  0  0
   11.4870    1.7236    0.0000 O   0  0  0  0  0  0  0  0  0  0  0  0
    3.0835    2.0902    0.0000 O   0  0  0  0  0  0  0  0  0  0  0  0
    3.7696   -1.7617    0.0000 O   0  0  0  0  0  0  0  0  0  0  0  0
    7.1327   -2.8451    0.0000 O   0  0  0  0  0  0  0  0  0  0  0  0
    7.1394    0.8071    0.0000 C   0  0  0  0  0  0  0  0  0  0  0  0
    8.0633    1.1898    0.0000 C   0  0  3  0  0  0  0  0  0  0  0  0
    7.1394    3.4202    0.0000 C   0  0  3  0  0  0  0  0  0  0  0  0
    6.2155    3.0376    0.0000 C   0  0  0  0  0  0  0  0  0  0  0  0
    6.2155    1.1898    0.0000 C   0  0  0  0  0  0  0  0  0  0  0  0
    6.3977    0.1340    0.0000 C   0  0  0  0  0  0  0  0  0  0  0  0
    8.4460    2.1137    0.0000 C   0  0  0  0  0  0  0  0  0  0  0  0
    6.7458    2.4949    0.0000 C   0  0  0  0  0  0  0  0  0  0  0  0
    7.1306    1.5658    0.0000 C   0  0  0  0  0  0  0  0  0  0  0  0
    8.0633    3.0376    0.0000 C   0  0  0  0  0  0  0  0  0  0  0  0
    5.8328    2.1137    0.0000 C   0  0  0  0  0  0  0  0  0  0  0  0
    5.4346    0.4088    0.0000 C   0  0  0  0  0  0  0  0  0  0  0  0
    9.4765    1.9618    0.0000 C   0  0  0  0  0  0  0  0  0  0  0  0
    5.4591   -0.1341    0.0000 C   0  0  0  0  0  0  0  0  0  0  0  0
    6.6670   -0.8739    0.0000 C   0  0  0  0  0  0  0  0  0  0  0  0
    5.7095    2.6476    0.0000 C   0  0  0  0  0  0  0  0  0  0  0  0
    6.5058    0.7250    0.0000 C   0  0  0  0  0  0  0  0  0  0  0  0
    8.6846    3.8736    0.0000 C   0  0  0  0  0  0  0  0  0  0  0  0
    4.3618    2.5150    0.0000 C   0  0  0  0  0  0  0  0  0  0  0  0
    4.6739   -0.3053    0.0000 C   0  0  0  0  0  0  0  0  0  0  0  0
   10.1169    2.7833    0.0000 C   0  0  0  0  0  0  0  0  0  0  0  0
    5.0654    1.8215    0.0000 C   0  0  0  0  0  0  0  0  0  0  0  0
    3.9374   -0.0378    0.0000 C   0  0  0  0  0  0  0  0  0  0  0  0
    5.9231   -1.6054    0.0000 C   0  0  0  0  0  0  0  0  0  0  0  0
    5.4663    0.8537    0.0000 C   0  0  0  0  0  0  0  0  0  0  0  0
    9.7183    3.7456    0.0000 C   0  0  0  0  0  0  0  0  0  0  0  0
    3.3539    1.3709    0.0000 C   0  0  0  0  0  0  0  0  0  0  0  0
    4.9198   -1.3192    0.0000 C   0  0  0  0  0  0  0  0  0  0  0  0
   11.1079    2.6489    0.0000 C   0  0  0  0  0  0  0  0  0  0  0  0
    4.0745    1.9558    0.0000 C   0  0  0  0  0  0  0  0  0  0  0  0
    3.3559   -0.8513    0.0000 C   0  0  0  0  0  0  0  0  0  0  0  0
    6.1700   -2.5744    0.0000 C   0  0  0  0  0  0  0  0  0  0  0  0
    7.4713    0.2834    0.0000 H   0  0  0  0  0  0  0  0  0  0  0  0
    8.5017    0.7514    0.0000 H   0  0  0  0  0  0  0  0  0  0  0  0
    7.1394    4.0402    0.0000 H   0  0  0  0  0  0  0  0  0  0  0  0
    5.7771    3.4760    0.0000 H   0  0  0  0  0  0  0  0  0  0  0  0
    9.7071    1.3863    0.0000 H   0  0  0  0  0  0  0  0  0  0  0  0
    5.7533   -0.6799    0.0000 H   0  0  0  0  0  0  0  0  0  0  0  0
    7.2651   -1.0372    0.0000 H   0  0  0  0  0  0  0  0  0  0  0  0
    5.4788    3.2231    0.0000 H   0  0  0  0  0  0  0  0  0  0  0  0
    6.7497    0.1550    0.0000 H   0  0  0  0  0  0  0  0  0  0  0  0
    8.4407    4.4436    0.0000 H   0  0  0  0  0  0  0  0  0  0  0  0
    4.1839    3.1089    0.0000 H   0  0  0  0  0  0  0  0  0  0  0  0
    4.0797   -0.1283    0.0000 H   0  0  0  0  0  0  0  0  0  0  0  0
    5.0907    0.3604    0.0000 H   0  0  0  0  0  0  0  0  0  0  0  0
   10.0939    4.2390    0.0000 H   0  0  0  0  0  0  0  0  0  0  0  0
    2.7423    1.4726    0.0000 H   0  0  0  0  0  0  0  0  0  0  0  0
    4.4727   -1.7487    0.0000 H   0  0  0  0  0  0  0  0  0  0  0  0
   12.3341    3.3566    0.0000 H   0  0  0  0  0  0  0  0  0  0  0  0
    3.0810    2.9645    0.0000 H   0  0  0  0  0  0  0  0  0  0  0  0
    2.0000   -1.2588    0.0000 H   0  0  0  0  0  0  0  0  0  0  0  0
    5.6074   -3.8736    0.0000 H   0  0  0  0  0  0  0  0  0  0  0  0
  1 37  1  0  0  0  0
  1 57  1  0  0  0  0
  2 38  1  0  0  0  0
  2 58  1  0  0  0  0
  3 39  1  0  0  0  0
  3 59  1  0  0  0  0
  4 40  1  0  0  0  0
  4 60  1  0  0  0  0
  5 37  2  0  0  0  0
  6 38  2  0  0  0  0
  7 39  2  0  0  0  0
  8 40  2  0  0  0  0
  9 10  1  0  0  0  0
  9 13  1  0  0  0  0
  9 14  1  0  0  0  0
  9 41  1  0  0  0  0
 10 15  1  0  0  0  0
 10 17  1  0  0  0  0
 10 42  1  0  0  0  0
 11 12  1  0  0  0  0
 11 16  1  0  0  0  0
 11 18  1  0  0  0  0
 11 43  1  0  0  0  0
 12 19  1  0  0  0  0
 12 20  1  0  0  0  0
 12 44  1  0  0  0  0
 13 19  2  0  0  0  0
 13 22  1  0  0  0  0
 14 20  2  0  0  0  0
 14 23  1  0  0  0  0
 15 18  2  0  0  0  0
 15 21  1  0  0  0  0
 16 17  2  0  0  0  0
 16 24  1  0  0  0  0
 17 25  1  0  0  0  0
 18 26  1  0  0  0  0
 19 27  1  0  0  0  0
 20 28  1  0  0  0  0
 21 29  2  0  0  0  0
 21 45  1  0  0  0  0
 22 31  2  0  0  0  0
 22 46  1  0  0  0  0
 23 32  2  0  0  0  0
 23 47  1  0  0  0  0
 24 30  2  0  0  0  0
 24 48  1  0  0  0  0
 25 33  2  0  0  0  0
 25 49  1  0  0  0  0
 26 34  2  0  0  0  0
 26 50  1  0  0  0  0
 27 35  2  0  0  0  0
 27 51  1  0  0  0  0
 28 36  2  0  0  0  0
 28 52  1  0  0  0  0
 29 34  1  0  0  0  0
 29 37  1  0  0  0  0
 30 33  1  0  0  0  0
 30 38  1  0  0  0  0
 31 35  1  0  0  0  0
 31 39  1  0  0  0  0
 32 36  1  0  0  0  0
 32 40  1  0  0  0  0
 33 53  1  0  0  0  0
 34 54  1  0  0  0  0
 35 55  1  0  0  0  0
 36 56  1  0  0  0  0
M  END
> <PUBCHEM_COMPOUND_CID>
102295214

> <PUBCHEM_COMPOUND_CANONICALIZED>
1

> <PUBCHEM_CACTVS_COMPLEXITY>
1050

> <PUBCHEM_CACTVS_HBOND_ACCEPTOR>
8

> <PUBCHEM_CACTVS_HBOND_DONOR>
4

> <PUBCHEM_CACTVS_ROTATABLE_BOND>
4

> <PUBCHEM_CACTVS_SUBSKEYS>
AAADceB8PAAAAAAAAAAAAAAAAAAAAAAAAAAwYMGDAAAYMADBVAAAGgAACAAADQCAmAAwCIAAAgCIAiDSCAACAAAkAAAIiAEACMgIJjKAFRCAcQAkwAEImYeIyPCOwAACAAAQAACAAAQAACAAAAAAAAAAAA==

> <PUBCHEM_IUPAC_OPENEYE_NAME>
heptacyclo[8.6.6.62,9.03,8.011,16.017,22.023,28]octacosa-3(8),4,6,11(16),12,14,17(22),18,20,23(28),24,26-dodecaene-5,13,19,26-tetracarboxylic acid

> <PUBCHEM_IUPAC_CAS_NAME>
heptacyclo[8.6.6.62,9.03,8.011,16.017,22.023,28]octacosa-3(8),4,6,11(16),12,14,17(22),18,20,23(28),24,26-dodecaene-5,13,19,26-tetracarboxylic acid

> <PUBCHEM_IUPAC_NAME_MARKUP>
heptacyclo[8.6.6.6<SUP>2,9</SUP>.0<SUP>3,8</SUP>.0<SUP>11,16</SUP>.0<SUP>17,22</SUP>.0<SUP>23,28</SUP>]octacosa-3(8),4,6,11(16),12,14,17(22),18,20,23(28),24,26-dodecaene-5,13,19,26-tetracarboxylic acid

> <PUBCHEM_IUPAC_NAME>
heptacyclo[8.6.6.62,9.03,8.011,16.017,22.023,28]octacosa-3(8),4,6,11(16),12,14,17(22),18,20,23(28),24,26-dodecaene-5,13,19,26-tetracarboxylic acid

> <PUBCHEM_IUPAC_SYSTEMATIC_NAME>
heptacyclo[8.6.6.62,9.03,8.011,16.017,22.023,28]octacosa-3(8),4,6,11(16),12,14,17(22),18,20,23(28),24,26-dodecaene-5,13,19,26-tetracarboxylic acid

> <PUBCHEM_IUPAC_TRADITIONAL_NAME>
heptacyclo[8.6.6.62,9.03,8.011,16.017,22.023,28]octacosa-3(8),4,6,11(16),12,14,17(22),18,20,23(28),24,26-dodecaene-5,13,19,26-tetracarboxylic acid

> <PUBCHEM_IUPAC_INCHI>
InChI=1S/C32H20O8/c33-29(34)13-4-8-20-21(9-13)26-19-7-3-14(30(35)36)10-22(19)27(20)28-23-11-15(31(37)38)1-5-17(23)25(26)18-6-2-16(32(39)40)12-24(18)28/h1-12,25-28H,(H,33,34)(H,35,36)(H,37,38)(H,39,40)

> <PUBCHEM_IUPAC_INCHIKEY>
XVNHDMLPDMWCSS-UHFFFAOYSA-N

> <PUBCHEM_XLOGP3_AA>
4.5

> <PUBCHEM_EXACT_MASS>
532.11581759

> <PUBCHEM_MOLECULAR_FORMULA>
C32H20O8

> <PUBCHEM_MOLECULAR_WEIGHT>
532.5

> <PUBCHEM_OPENEYE_CAN_SMILES>
C1=CC2=C(C=C1C(=O)O)C3C4C5=C(C=C(C=C5)C(=O)O)C(C2C6=C3C=C(C=C6)C(=O)O)C7=C4C=C(C=C7)C(=O)O

> <PUBCHEM_OPENEYE_ISO_SMILES>
C1=CC2=C(C=C1C(=O)O)C3C4C5=C(C=C(C=C5)C(=O)O)C(C2C6=C3C=C(C=C6)C(=O)O)C7=C4C=C(C=C7)C(=O)O

> <PUBCHEM_CACTVS_TPSA>
149

> <PUBCHEM_MONOISOTOPIC_WEIGHT>
532.11581759

> <PUBCHEM_TOTAL_CHARGE>
0

> <PUBCHEM_HEAVY_ATOM_COUNT>
40

> <PUBCHEM_ATOM_DEF_STEREO_COUNT>
0

> <PUBCHEM_ATOM_UDEF_STEREO_COUNT>
2

> <PUBCHEM_BOND_DEF_STEREO_COUNT>
0

> <PUBCHEM_BOND_UDEF_STEREO_COUNT>
0

> <PUBCHEM_ISOTOPIC_ATOM_COUNT>
0

> <PUBCHEM_COMPONENT_COUNT>
1

> <PUBCHEM_CACTVS_TAUTO_COUNT>
-1

> <PUBCHEM_COORDINATE_TYPE>
1
5
255

> <PUBCHEM_BONDANNOTATIONS>
10  17  3
11  18  3
13  19  8
13  22  8
14  20  8
14  23  8
15  18  8
15  21  8
16  17  8
16  24  8
17  25  8
18  26  8
19  27  8
20  28  8
21  29  8
22  31  8
23  32  8
24  30  8
25  33  8
26  34  8
27  35  8
28  36  8
29  34  8
30  33  8
31  35  8
32  36  8

$$$$
