 
  -OEChem-10192103552D

 49 50  0     0  0  0  0  0  0999 V2000
    7.6962    1.5670    0.0000 O   0  0  0  0  0  0  0  0  0  0  0  0
    5.9641   -0.1651    0.0000 O   0  0  0  0  0  0  0  0  0  0  0  0
    6.8301    3.0670    0.0000 O   0  0  0  0  0  0  0  0  0  0  0  0
    7.4641    0.7010    0.0000 O   0  0  0  0  0  0  0  0  0  0  0  0
    4.5981    1.9330    0.0000 C   0  0  0  0  0  0  0  0  0  0  0  0
    5.9641    1.5670    0.0000 C   0  0  0  0  0  0  0  0  0  0  0  0
    5.4641    2.4330    0.0000 C   0  0  0  0  0  0  0  0  0  0  0  0
    5.0981    1.0670    0.0000 C   0  0  0  0  0  0  0  0  0  0  0  0
    3.7320    1.4330    0.0000 C   0  0  0  0  0  0  0  0  0  0  0  0
    4.0981    2.7990    0.0000 C   0  0  0  0  0  0  0  0  0  0  0  0
    3.7320    0.4330    0.0000 C   0  0  0  0  0  0  0  0  0  0  0  0
    2.8660   -0.0670    0.0000 C   0  0  0  0  0  0  0  0  0  0  0  0
    6.8301    2.0670    0.0000 C   0  0  0  0  0  0  0  0  0  0  0  0
    6.4641    0.7010    0.0000 C   0  0  0  0  0  0  0  0  0  0  0  0
    2.8660   -1.0670    0.0000 C   0  0  0  0  0  0  0  0  0  0  0  0
    3.0981    2.7990    0.0000 C   0  0  0  0  0  0  0  0  0  0  0  0
    2.0000   -1.5670    0.0000 C   0  0  0  0  0  0  0  0  0  0  0  0
    3.7320   -1.5670    0.0000 C   0  0  0  0  0  0  0  0  0  0  0  0
    2.0000   -2.5670    0.0000 C   0  0  0  0  0  0  0  0  0  0  0  0
    3.7320   -2.5670    0.0000 C   0  0  0  0  0  0  0  0  0  0  0  0
    2.8660   -3.0670    0.0000 C   0  0  0  0  0  0  0  0  0  0  0  0
    6.0010    2.7430    0.0000 H   0  0  0  0  0  0  0  0  0  0  0  0
    5.1541    2.9700    0.0000 H   0  0  0  0  0  0  0  0  0  0  0  0
    4.5611    0.7570    0.0000 H   0  0  0  0  0  0  0  0  0  0  0  0
    5.4081    0.5301    0.0000 H   0  0  0  0  0  0  0  0  0  0  0  0
    3.5200    2.0156    0.0000 H   0  0  0  0  0  0  0  0  0  0  0  0
    3.1215    1.3254    0.0000 H   0  0  0  0  0  0  0  0  0  0  0  0
    4.6807    3.0111    0.0000 H   0  0  0  0  0  0  0  0  0  0  0  0
    3.9904    3.4096    0.0000 H   0  0  0  0  0  0  0  0  0  0  0  0
    3.9441   -0.1496    0.0000 H   0  0  0  0  0  0  0  0  0  0  0  0
    4.3426    0.5407    0.0000 H   0  0  0  0  0  0  0  0  0  0  0  0
    2.6540    0.5156    0.0000 H   0  0  0  0  0  0  0  0  0  0  0  0
    2.2554   -0.1746    0.0000 H   0  0  0  0  0  0  0  0  0  0  0  0
    3.4030   -0.7570    0.0000 H   0  0  0  0  0  0  0  0  0  0  0  0
    3.0981    3.4190    0.0000 H   0  0  0  0  0  0  0  0  0  0  0  0
    2.4781    2.7990    0.0000 H   0  0  0  0  0  0  0  0  0  0  0  0
    3.0981    2.1790    0.0000 H   0  0  0  0  0  0  0  0  0  0  0  0
    1.7880   -0.9844    0.0000 H   0  0  0  0  0  0  0  0  0  0  0  0
    1.3894   -1.6746    0.0000 H   0  0  0  0  0  0  0  0  0  0  0  0
    4.3426   -1.6746    0.0000 H   0  0  0  0  0  0  0  0  0  0  0  0
    3.9441   -0.9844    0.0000 H   0  0  0  0  0  0  0  0  0  0  0  0
    1.3894   -2.4593    0.0000 H   0  0  0  0  0  0  0  0  0  0  0  0
    1.7880   -3.1496    0.0000 H   0  0  0  0  0  0  0  0  0  0  0  0
    3.9441   -3.1496    0.0000 H   0  0  0  0  0  0  0  0  0  0  0  0
    4.3426   -2.4593    0.0000 H   0  0  0  0  0  0  0  0  0  0  0  0
    2.4675   -3.5419    0.0000 H   0  0  0  0  0  0  0  0  0  0  0  0
    3.2646   -3.5419    0.0000 H   0  0  0  0  0  0  0  0  0  0  0  0
    8.2331    1.8770    0.0000 H   0  0  0  0  0  0  0  0  0  0  0  0
    6.2741   -0.7020    0.0000 H   0  0  0  0  0  0  0  0  0  0  0  0
  1 13  1  0  0  0  0
  1 48  1  0  0  0  0
  2 14  1  0  0  0  0
  2 49  1  0  0  0  0
  3 13  2  0  0  0  0
  4 14  2  0  0  0  0
  5  7  1  0  0  0  0
  5  8  1  0  0  0  0
  5  9  1  0  0  0  0
  5 10  1  0  0  0  0
  6  7  1  0  0  0  0
  6  8  1  0  0  0  0
  6 13  1  0  0  0  0
  6 14  1  0  0  0  0
  7 22  1  0  0  0  0
  7 23  1  0  0  0  0
  8 24  1  0  0  0  0
  8 25  1  0  0  0  0
  9 11  1  0  0  0  0
  9 26  1  0  0  0  0
  9 27  1  0  0  0  0
 10 16  1  0  0  0  0
 10 28  1  0  0  0  0
 10 29  1  0  0  0  0
 11 12  1  0  0  0  0
 11 30  1  0  0  0  0
 11 31  1  0  0  0  0
 12 15  1  0  0  0  0
 12 32  1  0  0  0  0
 12 33  1  0  0  0  0
 15 17  1  0  0  0  0
 15 18  1  0  0  0  0
 15 34  1  0  0  0  0
 16 35  1  0  0  0  0
 16 36  1  0  0  0  0
 16 37  1  0  0  0  0
 17 19  1  0  0  0  0
 17 38  1  0  0  0  0
 17 39  1  0  0  0  0
 18 20  1  0  0  0  0
 18 40  1  0  0  0  0
 18 41  1  0  0  0  0
 19 21  1  0  0  0  0
 19 42  1  0  0  0  0
 19 43  1  0  0  0  0
 20 21  1  0  0  0  0
 20 44  1  0  0  0  0
 20 45  1  0  0  0  0
 21 46  1  0  0  0  0
 21 47  1  0  0  0  0
M  END
> <PUBCHEM_COMPOUND_CID>
23344493

> <PUBCHEM_COMPOUND_CANONICALIZED>
1

> <PUBCHEM_CACTVS_COMPLEXITY>
374

> <PUBCHEM_CACTVS_HBOND_ACCEPTOR>
4

> <PUBCHEM_CACTVS_HBOND_DONOR>
2

> <PUBCHEM_CACTVS_ROTATABLE_BOND>
7

> <PUBCHEM_CACTVS_SUBSKEYS>
AAADceB4OAAAAAAAAAAAAAAAAABgAAAAAAAwAAAAAAAAAAAAAAAAGgAACAAADwCAgAACCAAAAgAIAACQCAAAAAAAAAAAAAEAAAAAABYIAAAAQAAFIAAAAAGIyOCPAAAAAAAAAAAAAAAAAAAAAAAAAAAAAA==

> <PUBCHEM_IUPAC_OPENEYE_NAME>
3-(3-cyclohexylpropyl)-3-ethyl-cyclobutane-1,1-dicarboxylic acid

> <PUBCHEM_IUPAC_CAS_NAME>
3-(3-cyclohexylpropyl)-3-ethylcyclobutane-1,1-dicarboxylic acid

> <PUBCHEM_IUPAC_NAME_MARKUP>
3-(3-cyclohexylpropyl)-3-ethylcyclobutane-1,1-dicarboxylic acid

> <PUBCHEM_IUPAC_NAME>
3-(3-cyclohexylpropyl)-3-ethylcyclobutane-1,1-dicarboxylic acid

> <PUBCHEM_IUPAC_SYSTEMATIC_NAME>
3-(3-cyclohexylpropyl)-3-ethyl-cyclobutane-1,1-dicarboxylic acid

> <PUBCHEM_IUPAC_TRADITIONAL_NAME>
3-(3-cyclohexylpropyl)-3-ethyl-cyclobutane-1,1-dicarboxylic acid

> <PUBCHEM_IUPAC_INCHI>
InChI=1S/C17H28O4/c1-2-16(10-6-9-13-7-4-3-5-8-13)11-17(12-16,14(18)19)15(20)21/h13H,2-12H2,1H3,(H,18,19)(H,20,21)

> <PUBCHEM_IUPAC_INCHIKEY>
NDNLRSOWQUZFFO-UHFFFAOYSA-N

> <PUBCHEM_XLOGP3_AA>
5.4

> <PUBCHEM_EXACT_MASS>
296.19875937

> <PUBCHEM_MOLECULAR_FORMULA>
C17H28O4

> <PUBCHEM_MOLECULAR_WEIGHT>
296.4

> <PUBCHEM_OPENEYE_CAN_SMILES>
CCC1(CC(C1)(C(=O)O)C(=O)O)CCCC2CCCCC2

> <PUBCHEM_OPENEYE_ISO_SMILES>
CCC1(CC(C1)(C(=O)O)C(=O)O)CCCC2CCCCC2

> <PUBCHEM_CACTVS_TPSA>
74.6

> <PUBCHEM_MONOISOTOPIC_WEIGHT>
296.19875937

> <PUBCHEM_TOTAL_CHARGE>
0

> <PUBCHEM_HEAVY_ATOM_COUNT>
21

> <PUBCHEM_ATOM_DEF_STEREO_COUNT>
0

> <PUBCHEM_ATOM_UDEF_STEREO_COUNT>
0

> <PUBCHEM_BOND_DEF_STEREO_COUNT>
0

> <PUBCHEM_BOND_UDEF_STEREO_COUNT>
0

> <PUBCHEM_ISOTOPIC_ATOM_COUNT>
0

> <PUBCHEM_COMPONENT_COUNT>
1

> <PUBCHEM_CACTVS_TAUTO_COUNT>
-1

> <PUBCHEM_COORDINATE_TYPE>
1
5
255

$$$$
