 
  -OEChem-10192103562D

 90 89  0     0  0  0  0  0  0999 V2000
   21.5895    0.2500    0.0000 O   0  0  0  0  0  0  0  0  0  0  0  0
   12.0632   -0.2500    0.0000 O   0  0  0  0  0  0  0  0  0  0  0  0
   20.7235   -1.2500    0.0000 O   0  0  0  0  0  0  0  0  0  0  0  0
   12.9292    1.2500    0.0000 O   0  0  0  0  0  0  0  0  0  0  0  0
   22.4555   -1.2500    0.0000 O   0  0  0  0  0  0  0  0  0  0  0  0
   11.1972    1.2500    0.0000 O   0  0  0  0  0  0  0  0  0  0  0  0
   31.1158   -0.2500    0.0000 O   0  0  0  0  0  0  0  0  0  0  0  0
    2.5369    0.2500    0.0000 O   0  0  0  0  0  0  0  0  0  0  0  0
   30.2497    1.2500    0.0000 O   0  0  0  0  0  0  0  0  0  0  0  0
    3.4030   -1.2500    0.0000 O   0  0  0  0  0  0  0  0  0  0  0  0
   17.2594   -0.2500    0.0000 C   0  0  0  0  0  0  0  0  0  0  0  0
   16.3933    0.2500    0.0000 C   0  0  0  0  0  0  0  0  0  0  0  0
   18.1254    0.2500    0.0000 C   0  0  0  0  0  0  0  0  0  0  0  0
   15.5273   -0.2500    0.0000 C   0  0  0  0  0  0  0  0  0  0  0  0
   25.9196   -0.2500    0.0000 C   0  0  0  0  0  0  0  0  0  0  0  0
    7.7331    0.2500    0.0000 C   0  0  0  0  0  0  0  0  0  0  0  0
   26.7856    0.2500    0.0000 C   0  0  0  0  0  0  0  0  0  0  0  0
    6.8671   -0.2500    0.0000 C   0  0  0  0  0  0  0  0  0  0  0  0
   25.0536    0.2500    0.0000 C   0  0  0  0  0  0  0  0  0  0  0  0
    8.5991   -0.2500    0.0000 C   0  0  0  0  0  0  0  0  0  0  0  0
   27.6517   -0.2500    0.0000 C   0  0  0  0  0  0  0  0  0  0  0  0
    6.0010    0.2500    0.0000 C   0  0  0  0  0  0  0  0  0  0  0  0
   18.9914   -0.2500    0.0000 C   0  0  0  0  0  0  0  0  0  0  0  0
   14.6613    0.2500    0.0000 C   0  0  0  0  0  0  0  0  0  0  0  0
   24.1876   -0.2500    0.0000 C   0  0  0  0  0  0  0  0  0  0  0  0
    9.4651    0.2500    0.0000 C   0  0  0  0  0  0  0  0  0  0  0  0
   28.5177    0.2500    0.0000 C   0  0  0  0  0  0  0  0  0  0  0  0
    5.1350   -0.2500    0.0000 C   0  0  0  0  0  0  0  0  0  0  0  0
   19.8574    0.2500    0.0000 C   0  0  0  0  0  0  0  0  0  0  0  0
   13.7953   -0.2500    0.0000 C   0  0  0  0  0  0  0  0  0  0  0  0
   23.3215    0.2500    0.0000 C   0  0  0  0  0  0  0  0  0  0  0  0
   10.3312   -0.2500    0.0000 C   0  0  0  0  0  0  0  0  0  0  0  0
   29.3837   -0.2500    0.0000 C   0  0  0  0  0  0  0  0  0  0  0  0
    4.2690    0.2500    0.0000 C   0  0  0  0  0  0  0  0  0  0  0  0
   20.7235   -0.2500    0.0000 C   0  0  0  0  0  0  0  0  0  0  0  0
   12.9292    0.2500    0.0000 C   0  0  0  0  0  0  0  0  0  0  0  0
   22.4555   -0.2500    0.0000 C   0  0  0  0  0  0  0  0  0  0  0  0
   11.1972    0.2500    0.0000 C   0  0  0  0  0  0  0  0  0  0  0  0
   30.2497    0.2500    0.0000 C   0  0  0  0  0  0  0  0  0  0  0  0
    3.4030   -0.2500    0.0000 C   0  0  0  0  0  0  0  0  0  0  0  0
   16.8608   -0.7249    0.0000 H   0  0  0  0  0  0  0  0  0  0  0  0
   17.6579   -0.7249    0.0000 H   0  0  0  0  0  0  0  0  0  0  0  0
   16.7919    0.7249    0.0000 H   0  0  0  0  0  0  0  0  0  0  0  0
   15.9948    0.7249    0.0000 H   0  0  0  0  0  0  0  0  0  0  0  0
   18.5239    0.7249    0.0000 H   0  0  0  0  0  0  0  0  0  0  0  0
   17.7269    0.7249    0.0000 H   0  0  0  0  0  0  0  0  0  0  0  0
   15.1288   -0.7249    0.0000 H   0  0  0  0  0  0  0  0  0  0  0  0
   15.9258   -0.7249    0.0000 H   0  0  0  0  0  0  0  0  0  0  0  0
   25.5211   -0.7249    0.0000 H   0  0  0  0  0  0  0  0  0  0  0  0
   26.3182   -0.7249    0.0000 H   0  0  0  0  0  0  0  0  0  0  0  0
    8.1316    0.7249    0.0000 H   0  0  0  0  0  0  0  0  0  0  0  0
    7.3346    0.7249    0.0000 H   0  0  0  0  0  0  0  0  0  0  0  0
   27.1842    0.7249    0.0000 H   0  0  0  0  0  0  0  0  0  0  0  0
   26.3871    0.7249    0.0000 H   0  0  0  0  0  0  0  0  0  0  0  0
    6.4685   -0.7249    0.0000 H   0  0  0  0  0  0  0  0  0  0  0  0
    7.2656   -0.7249    0.0000 H   0  0  0  0  0  0  0  0  0  0  0  0
   25.4521    0.7249    0.0000 H   0  0  0  0  0  0  0  0  0  0  0  0
   24.6551    0.7249    0.0000 H   0  0  0  0  0  0  0  0  0  0  0  0
    8.2006   -0.7249    0.0000 H   0  0  0  0  0  0  0  0  0  0  0  0
    8.9976   -0.7249    0.0000 H   0  0  0  0  0  0  0  0  0  0  0  0
   27.2531   -0.7249    0.0000 H   0  0  0  0  0  0  0  0  0  0  0  0
   28.0502   -0.7249    0.0000 H   0  0  0  0  0  0  0  0  0  0  0  0
    6.3996    0.7249    0.0000 H   0  0  0  0  0  0  0  0  0  0  0  0
    5.6025    0.7249    0.0000 H   0  0  0  0  0  0  0  0  0  0  0  0
   18.5929   -0.7249    0.0000 H   0  0  0  0  0  0  0  0  0  0  0  0
   19.3899   -0.7249    0.0000 H   0  0  0  0  0  0  0  0  0  0  0  0
   15.0598    0.7249    0.0000 H   0  0  0  0  0  0  0  0  0  0  0  0
   14.2628    0.7249    0.0000 H   0  0  0  0  0  0  0  0  0  0  0  0
   23.7890   -0.7249    0.0000 H   0  0  0  0  0  0  0  0  0  0  0  0
   24.5861   -0.7249    0.0000 H   0  0  0  0  0  0  0  0  0  0  0  0
    9.8637    0.7249    0.0000 H   0  0  0  0  0  0  0  0  0  0  0  0
    9.0666    0.7249    0.0000 H   0  0  0  0  0  0  0  0  0  0  0  0
   28.9162    0.7249    0.0000 H   0  0  0  0  0  0  0  0  0  0  0  0
   28.1192    0.7249    0.0000 H   0  0  0  0  0  0  0  0  0  0  0  0
    4.7365   -0.7249    0.0000 H   0  0  0  0  0  0  0  0  0  0  0  0
    5.5335   -0.7249    0.0000 H   0  0  0  0  0  0  0  0  0  0  0  0
   20.2560    0.7249    0.0000 H   0  0  0  0  0  0  0  0  0  0  0  0
   19.4589    0.7249    0.0000 H   0  0  0  0  0  0  0  0  0  0  0  0
   13.3967   -0.7249    0.0000 H   0  0  0  0  0  0  0  0  0  0  0  0
   14.1938   -0.7249    0.0000 H   0  0  0  0  0  0  0  0  0  0  0  0
   23.7201    0.7249    0.0000 H   0  0  0  0  0  0  0  0  0  0  0  0
   22.9230    0.7249    0.0000 H   0  0  0  0  0  0  0  0  0  0  0  0
    9.9326   -0.7249    0.0000 H   0  0  0  0  0  0  0  0  0  0  0  0
   10.7297   -0.7249    0.0000 H   0  0  0  0  0  0  0  0  0  0  0  0
   28.9852   -0.7249    0.0000 H   0  0  0  0  0  0  0  0  0  0  0  0
   29.7823   -0.7249    0.0000 H   0  0  0  0  0  0  0  0  0  0  0  0
    4.6675    0.7249    0.0000 H   0  0  0  0  0  0  0  0  0  0  0  0
    3.8705    0.7249    0.0000 H   0  0  0  0  0  0  0  0  0  0  0  0
   31.6527    0.0600    0.0000 H   0  0  0  0  0  0  0  0  0  0  0  0
    2.0000   -0.0600    0.0000 H   0  0  0  0  0  0  0  0  0  0  0  0
  1 35  1  0  0  0  0
  1 37  1  0  0  0  0
  2 36  1  0  0  0  0
  2 38  1  0  0  0  0
  3 35  2  0  0  0  0
  4 36  2  0  0  0  0
  5 37  2  0  0  0  0
  6 38  2  0  0  0  0
  7 39  1  0  0  0  0
  7 89  1  0  0  0  0
  8 40  1  0  0  0  0
  8 90  1  0  0  0  0
  9 39  2  0  0  0  0
 10 40  2  0  0  0  0
 11 12  1  0  0  0  0
 11 13  1  0  0  0  0
 11 41  1  0  0  0  0
 11 42  1  0  0  0  0
 12 14  1  0  0  0  0
 12 43  1  0  0  0  0
 12 44  1  0  0  0  0
 13 23  1  0  0  0  0
 13 45  1  0  0  0  0
 13 46  1  0  0  0  0
 14 24  1  0  0  0  0
 14 47  1  0  0  0  0
 14 48  1  0  0  0  0
 15 17  1  0  0  0  0
 15 19  1  0  0  0  0
 15 49  1  0  0  0  0
 15 50  1  0  0  0  0
 16 18  1  0  0  0  0
 16 20  1  0  0  0  0
 16 51  1  0  0  0  0
 16 52  1  0  0  0  0
 17 21  1  0  0  0  0
 17 53  1  0  0  0  0
 17 54  1  0  0  0  0
 18 22  1  0  0  0  0
 18 55  1  0  0  0  0
 18 56  1  0  0  0  0
 19 25  1  0  0  0  0
 19 57  1  0  0  0  0
 19 58  1  0  0  0  0
 20 26  1  0  0  0  0
 20 59  1  0  0  0  0
 20 60  1  0  0  0  0
 21 27  1  0  0  0  0
 21 61  1  0  0  0  0
 21 62  1  0  0  0  0
 22 28  1  0  0  0  0
 22 63  1  0  0  0  0
 22 64  1  0  0  0  0
 23 29  1  0  0  0  0
 23 65  1  0  0  0  0
 23 66  1  0  0  0  0
 24 30  1  0  0  0  0
 24 67  1  0  0  0  0
 24 68  1  0  0  0  0
 25 31  1  0  0  0  0
 25 69  1  0  0  0  0
 25 70  1  0  0  0  0
 26 32  1  0  0  0  0
 26 71  1  0  0  0  0
 26 72  1  0  0  0  0
 27 33  1  0  0  0  0
 27 73  1  0  0  0  0
 27 74  1  0  0  0  0
 28 34  1  0  0  0  0
 28 75  1  0  0  0  0
 28 76  1  0  0  0  0
 29 35  1  0  0  0  0
 29 77  1  0  0  0  0
 29 78  1  0  0  0  0
 30 36  1  0  0  0  0
 30 79  1  0  0  0  0
 30 80  1  0  0  0  0
 31 37  1  0  0  0  0
 31 81  1  0  0  0  0
 31 82  1  0  0  0  0
 32 38  1  0  0  0  0
 32 83  1  0  0  0  0
 32 84  1  0  0  0  0
 33 39  1  0  0  0  0
 33 85  1  0  0  0  0
 33 86  1  0  0  0  0
 34 40  1  0  0  0  0
 34 87  1  0  0  0  0
 34 88  1  0  0  0  0
M  END
> <PUBCHEM_COMPOUND_CID>
60204144

> <PUBCHEM_COMPOUND_CANONICALIZED>
1

> <PUBCHEM_CACTVS_COMPLEXITY>
685

> <PUBCHEM_CACTVS_HBOND_ACCEPTOR>
10

> <PUBCHEM_CACTVS_HBOND_DONOR>
2

> <PUBCHEM_CACTVS_ROTATABLE_BOND>
31

> <PUBCHEM_CACTVS_SUBSKEYS>
AAADcfB4PAAAAAAAAAAAAAAAAAAAAAAAAAAAAAAAAAAAAAAAAAAAGgAACAAACACAgAAACAAABgAIAACQCAAAAAAAAAAAAAEAAAAAABIAAAACQAAEAAAAAAGIyKCAAAAAAAAAAAAAAAAAAAAAAAAAAAAAAA==

> <PUBCHEM_IUPAC_OPENEYE_NAME>
10-[10-(9-carboxynonanoyloxy)-10-oxo-decanoyl]oxy-10-oxo-decanoic acid

> <PUBCHEM_IUPAC_CAS_NAME>
10-[10-(9-carboxy-1-oxononoxy)-1,10-dioxodecoxy]-10-oxodecanoic acid

> <PUBCHEM_IUPAC_NAME_MARKUP>
10-[10-(9-carboxynonanoyloxy)-10-oxodecanoyl]oxy-10-oxodecanoic acid

> <PUBCHEM_IUPAC_NAME>
10-[10-(9-carboxynonanoyloxy)-10-oxodecanoyl]oxy-10-oxodecanoic acid

> <PUBCHEM_IUPAC_SYSTEMATIC_NAME>
10-oxidanylidene-10-[10-oxidanylidene-10-(10-oxidanyl-10-oxidanylidene-decanoyl)oxy-decanoyl]oxy-decanoic acid

> <PUBCHEM_IUPAC_TRADITIONAL_NAME>
10-[10-(9-carboxynonanoyloxy)-10-keto-decanoyl]oxy-10-keto-capric acid

> <PUBCHEM_IUPAC_INCHI>
InChI=1S/C30H50O10/c31-25(32)19-13-7-1-3-9-15-21-27(35)39-29(37)23-17-11-5-6-12-18-24-30(38)40-28(36)22-16-10-4-2-8-14-20-26(33)34/h1-24H2,(H,31,32)(H,33,34)

> <PUBCHEM_IUPAC_INCHIKEY>
NRGXWMQZGNWBEC-UHFFFAOYSA-N

> <PUBCHEM_XLOGP3_AA>
6.9

> <PUBCHEM_EXACT_MASS>
570.34039779

> <PUBCHEM_MOLECULAR_FORMULA>
C30H50O10

> <PUBCHEM_MOLECULAR_WEIGHT>
570.7

> <PUBCHEM_OPENEYE_CAN_SMILES>
C(CCCCC(=O)OC(=O)CCCCCCCCC(=O)OC(=O)CCCCCCCCC(=O)O)CCCC(=O)O

> <PUBCHEM_OPENEYE_ISO_SMILES>
C(CCCCC(=O)OC(=O)CCCCCCCCC(=O)OC(=O)CCCCCCCCC(=O)O)CCCC(=O)O

> <PUBCHEM_CACTVS_TPSA>
161

> <PUBCHEM_MONOISOTOPIC_WEIGHT>
570.34039779

> <PUBCHEM_TOTAL_CHARGE>
0

> <PUBCHEM_HEAVY_ATOM_COUNT>
40

> <PUBCHEM_ATOM_DEF_STEREO_COUNT>
0

> <PUBCHEM_ATOM_UDEF_STEREO_COUNT>
0

> <PUBCHEM_BOND_DEF_STEREO_COUNT>
0

> <PUBCHEM_BOND_UDEF_STEREO_COUNT>
0

> <PUBCHEM_ISOTOPIC_ATOM_COUNT>
0

> <PUBCHEM_COMPONENT_COUNT>
1

> <PUBCHEM_CACTVS_TAUTO_COUNT>
-1

> <PUBCHEM_COORDINATE_TYPE>
1
5
255

$$$$
