 
  -OEChem-10192104282D

 59 60  0     1  0  0  0  0  0999 V2000
    6.0010    0.8450    0.0000 O   0  0  0  0  0  0  0  0  0  0  0  0
    4.2690    0.8450    0.0000 O   0  0  0  0  0  0  0  0  0  0  0  0
    5.1350    2.3450    0.0000 O   0  0  0  0  0  0  0  0  0  0  0  0
    4.2690   -2.1550    0.0000 O   0  0  0  0  0  0  0  0  0  0  0  0
    6.0010   -1.1550    0.0000 O   0  0  0  0  0  0  0  0  0  0  0  0
    2.5369   -1.1550    0.0000 O   0  0  0  0  0  0  0  0  0  0  0  0
    7.7331    1.8450    0.0000 O   0  0  0  0  0  0  0  0  0  0  0  0
    7.7331    3.8450    0.0000 O   0  0  0  0  0  0  0  0  0  0  0  0
    6.0010    4.8450    0.0000 O   0  0  0  0  0  0  0  0  0  0  0  0
    2.5369    1.8450    0.0000 O   0  0  0  0  0  0  0  0  0  0  0  0
    4.2690    4.8450    0.0000 O   0  0  0  0  0  0  0  0  0  0  0  0
    2.5369   -2.1550    0.0000 O   0  0  0  0  0  0  0  0  0  0  0  0
    4.2690   -1.1550    0.0000 C   0  0  2  0  0  0  0  0  0  0  0  0
    5.1350   -0.6550    0.0000 C   0  0  2  0  0  0  0  0  0  0  0  0
    5.1350    0.3450    0.0000 C   0  0  1  0  0  0  0  0  0  0  0  0
    3.4030   -0.6550    0.0000 C   0  0  1  0  0  0  0  0  0  0  0  0
    6.0010    1.8450    0.0000 C   0  0  1  0  0  0  0  0  0  0  0  0
    3.4030    0.3450    0.0000 C   0  0  1  0  0  0  0  0  0  0  0  0
    6.8671    2.3450    0.0000 C   0  0  1  0  0  0  0  0  0  0  0  0
    6.8671    3.3450    0.0000 C   0  0  2  0  0  0  0  0  0  0  0  0
    6.0010    3.8450    0.0000 C   0  0  1  0  0  0  0  0  0  0  0  0
    5.1350    3.3450    0.0000 C   0  0  1  0  0  0  0  0  0  0  0  0
    2.5369    0.8450    0.0000 C   0  0  0  0  0  0  0  0  0  0  0  0
    4.2690    3.8450    0.0000 C   0  0  0  0  0  0  0  0  0  0  0  0
    3.4030   -2.6550    0.0000 C   0  0  0  0  0  0  0  0  0  0  0  0
    3.4030   -3.6550    0.0000 C   0  0  3  0  0  0  0  0  0  0  0  0
    2.5369   -4.1550    0.0000 C   0  0  0  0  0  0  0  0  0  0  0  0
    4.2690   -4.1550    0.0000 C   0  0  0  0  0  0  0  0  0  0  0  0
    2.5369   -5.1550    0.0000 C   0  0  0  0  0  0  0  0  0  0  0  0
    3.7320   -1.4650    0.0000 H   0  0  0  0  0  0  0  0  0  0  0  0
    5.1350   -1.2750    0.0000 H   0  0  0  0  0  0  0  0  0  0  0  0
    5.1350    0.9650    0.0000 H   0  0  0  0  0  0  0  0  0  0  0  0
    3.4030   -1.2750    0.0000 H   0  0  0  0  0  0  0  0  0  0  0  0
    6.5380    1.5350    0.0000 H   0  0  0  0  0  0  0  0  0  0  0  0
    3.4030    0.9650    0.0000 H   0  0  0  0  0  0  0  0  0  0  0  0
    7.4040    2.6550    0.0000 H   0  0  0  0  0  0  0  0  0  0  0  0
    6.8671    3.9650    0.0000 H   0  0  0  0  0  0  0  0  0  0  0  0
    6.5380    4.1550    0.0000 H   0  0  0  0  0  0  0  0  0  0  0  0
    4.5981    3.0350    0.0000 H   0  0  0  0  0  0  0  0  0  0  0  0
    1.9264    0.9527    0.0000 H   0  0  0  0  0  0  0  0  0  0  0  0
    2.3249    0.2624    0.0000 H   0  0  0  0  0  0  0  0  0  0  0  0
    3.6584    3.9527    0.0000 H   0  0  0  0  0  0  0  0  0  0  0  0
    4.0569    3.2624    0.0000 H   0  0  0  0  0  0  0  0  0  0  0  0
    6.5380   -0.8450    0.0000 H   0  0  0  0  0  0  0  0  0  0  0  0
    2.0000   -0.8450    0.0000 H   0  0  0  0  0  0  0  0  0  0  0  0
    8.2700    2.1550    0.0000 H   0  0  0  0  0  0  0  0  0  0  0  0
    7.7331    4.4650    0.0000 H   0  0  0  0  0  0  0  0  0  0  0  0
    6.5380    5.1550    0.0000 H   0  0  0  0  0  0  0  0  0  0  0  0
    3.9399   -3.3450    0.0000 H   0  0  0  0  0  0  0  0  0  0  0  0
    2.0000    2.1550    0.0000 H   0  0  0  0  0  0  0  0  0  0  0  0
    3.7320    5.1550    0.0000 H   0  0  0  0  0  0  0  0  0  0  0  0
    2.3249   -3.5724    0.0000 H   0  0  0  0  0  0  0  0  0  0  0  0
    1.9264   -4.2627    0.0000 H   0  0  0  0  0  0  0  0  0  0  0  0
    3.9590   -4.6919    0.0000 H   0  0  0  0  0  0  0  0  0  0  0  0
    4.8059   -4.4650    0.0000 H   0  0  0  0  0  0  0  0  0  0  0  0
    4.5790   -3.6181    0.0000 H   0  0  0  0  0  0  0  0  0  0  0  0
    1.9169   -5.1550    0.0000 H   0  0  0  0  0  0  0  0  0  0  0  0
    2.5369   -5.7750    0.0000 H   0  0  0  0  0  0  0  0  0  0  0  0
    3.1569   -5.1550    0.0000 H   0  0  0  0  0  0  0  0  0  0  0  0
 15  1  1  6  0  0  0
 17  1  1  1  0  0  0
  2 15  1  0  0  0  0
  2 18  1  0  0  0  0
  3 17  1  0  0  0  0
  3 22  1  0  0  0  0
 13  4  1  1  0  0  0
  4 25  1  0  0  0  0
 14  5  1  6  0  0  0
  5 44  1  0  0  0  0
 16  6  1  6  0  0  0
  6 45  1  0  0  0  0
 19  7  1  1  0  0  0
  7 46  1  0  0  0  0
 20  8  1  6  0  0  0
  8 47  1  0  0  0  0
 21  9  1  1  0  0  0
  9 48  1  0  0  0  0
 10 23  1  0  0  0  0
 10 50  1  0  0  0  0
 11 24  1  0  0  0  0
 11 51  1  0  0  0  0
 12 25  2  0  0  0  0
 13 14  1  0  0  0  0
 13 16  1  0  0  0  0
 13 30  1  0  0  0  0
 14 15  1  0  0  0  0
 14 31  1  0  0  0  0
 15 32  1  0  0  0  0
 16 18  1  0  0  0  0
 16 33  1  0  0  0  0
 17 19  1  0  0  0  0
 17 34  1  0  0  0  0
 18 23  1  1  0  0  0
 18 35  1  0  0  0  0
 19 20  1  0  0  0  0
 19 36  1  0  0  0  0
 20 21  1  0  0  0  0
 20 37  1  0  0  0  0
 21 22  1  0  0  0  0
 21 38  1  0  0  0  0
 22 24  1  6  0  0  0
 22 39  1  0  0  0  0
 23 40  1  0  0  0  0
 23 41  1  0  0  0  0
 24 42  1  0  0  0  0
 24 43  1  0  0  0  0
 25 26  1  0  0  0  0
 26 27  1  0  0  0  0
 26 28  1  0  0  0  0
 26 49  1  0  0  0  0
 27 29  1  0  0  0  0
 27 52  1  0  0  0  0
 27 53  1  0  0  0  0
 28 54  1  0  0  0  0
 28 55  1  0  0  0  0
 28 56  1  0  0  0  0
 29 57  1  0  0  0  0
 29 58  1  0  0  0  0
 29 59  1  0  0  0  0
M  END
> <PUBCHEM_COMPOUND_CID>
75368746

> <PUBCHEM_COMPOUND_CANONICALIZED>
1

> <PUBCHEM_CACTVS_COMPLEXITY>
533

> <PUBCHEM_CACTVS_HBOND_ACCEPTOR>
12

> <PUBCHEM_CACTVS_HBOND_DONOR>
7

> <PUBCHEM_CACTVS_ROTATABLE_BOND>
8

> <PUBCHEM_CACTVS_SUBSKEYS>
AAADceB4PAAAAAAAAAAAAAAAAAAAAAAAAAAkSAAAAAAAAAAAAAAAGgAACAAADRSwgAMCCAAABgAIAACQCAAAAAAAAAAAAAEAAAAREBIAAAAiQAAFAAAHAAHAYAwIAAAAAAAAAAAAAAAAAAAAAAAAAAAAAA==

> <PUBCHEM_IUPAC_OPENEYE_NAME>
[(2R,3R,4S,5R,6R)-3,5-dihydroxy-2-(hydroxymethyl)-6-[(2R,3R,4S,5S,6R)-3,4,5-trihydroxy-6-(hydroxymethyl)tetrahydropyran-2-yl]oxy-tetrahydropyran-4-yl] 2-methylbutanoate

> <PUBCHEM_IUPAC_CAS_NAME>
2-methylbutanoic acid [(2R,3R,4S,5R,6R)-3,5-dihydroxy-2-(hydroxymethyl)-6-[[(2R,3R,4S,5S,6R)-3,4,5-trihydroxy-6-(hydroxymethyl)-2-oxanyl]oxy]-4-oxanyl] ester

> <PUBCHEM_IUPAC_NAME_MARKUP>
[(2<I>R</I>,3<I>R</I>,4<I>S</I>,5<I>R</I>,6<I>R</I>)-3,5-dihydroxy-2-(hydroxymethyl)-6-[(2<I>R</I>,3<I>R</I>,4<I>S</I>,5<I>S</I>,6<I>R</I>)-3,4,5-trihydroxy-6-(hydroxymethyl)oxan-2-yl]oxyoxan-4-yl] 2-methylbutanoate

> <PUBCHEM_IUPAC_NAME>
[(2R,3R,4S,5R,6R)-3,5-dihydroxy-2-(hydroxymethyl)-6-[(2R,3R,4S,5S,6R)-3,4,5-trihydroxy-6-(hydroxymethyl)oxan-2-yl]oxyoxan-4-yl] 2-methylbutanoate

> <PUBCHEM_IUPAC_SYSTEMATIC_NAME>
[(2R,3R,4S,5R,6R)-2-(hydroxymethyl)-6-[(2R,3R,4S,5S,6R)-6-(hydroxymethyl)-3,4,5-tris(oxidanyl)oxan-2-yl]oxy-3,5-bis(oxidanyl)oxan-4-yl] 2-methylbutanoate

> <PUBCHEM_IUPAC_TRADITIONAL_NAME>
2-methylbutyric acid [(2R,3R,4S,5R,6R)-3,5-dihydroxy-2-methylol-6-[(2R,3R,4S,5S,6R)-3,4,5-trihydroxy-6-methylol-tetrahydropyran-2-yl]oxy-tetrahydropyran-4-yl] ester

> <PUBCHEM_IUPAC_INCHI>
InChI=1S/C17H30O12/c1-3-6(2)15(25)28-14-10(21)8(5-19)27-17(13(14)24)29-16-12(23)11(22)9(20)7(4-18)26-16/h6-14,16-24H,3-5H2,1-2H3/t6?,7-,8-,9-,10-,11+,12-,13-,14+,16-,17-/m1/s1

> <PUBCHEM_IUPAC_INCHIKEY>
SFAOCCXTEHOWEV-AGJOLMTFSA-N

> <PUBCHEM_XLOGP3_AA>
-2.2

> <PUBCHEM_EXACT_MASS>
426.17372639

> <PUBCHEM_MOLECULAR_FORMULA>
C17H30O12

> <PUBCHEM_MOLECULAR_WEIGHT>
426.4

> <PUBCHEM_OPENEYE_CAN_SMILES>
CCC(C)C(=O)OC1C(C(OC(C1O)OC2C(C(C(C(O2)CO)O)O)O)CO)O

> <PUBCHEM_OPENEYE_ISO_SMILES>
CCC(C)C(=O)O[C@H]1[C@@H]([C@H](O[C@@H]([C@@H]1O)O[C@@H]2[C@@H]([C@H]([C@@H]([C@H](O2)CO)O)O)O)CO)O

> <PUBCHEM_CACTVS_TPSA>
196

> <PUBCHEM_MONOISOTOPIC_WEIGHT>
426.17372639

> <PUBCHEM_TOTAL_CHARGE>
0

> <PUBCHEM_HEAVY_ATOM_COUNT>
29

> <PUBCHEM_ATOM_DEF_STEREO_COUNT>
10

> <PUBCHEM_ATOM_UDEF_STEREO_COUNT>
1

> <PUBCHEM_BOND_DEF_STEREO_COUNT>
0

> <PUBCHEM_BOND_UDEF_STEREO_COUNT>
0

> <PUBCHEM_ISOTOPIC_ATOM_COUNT>
0

> <PUBCHEM_COMPONENT_COUNT>
1

> <PUBCHEM_CACTVS_TAUTO_COUNT>
-1

> <PUBCHEM_COORDINATE_TYPE>
1
5
255

> <PUBCHEM_BONDANNOTATIONS>
15  1  6
17  1  5
18  23  5
22  24  6
26  28  3
13  4  5
14  5  6
16  6  6
19  7  5
20  8  6
21  9  5

$$$$
