 
  -OEChem-10192103532D

 88 93  0     0  0  0  0  0  0999 V2000
    2.0000    4.5950    0.0000 O   0  0  0  0  0  0  0  0  0  0  0  0
    9.7942   -5.9050    0.0000 O   0  0  0  0  0  0  0  0  0  0  0  0
   14.9904    3.0950    0.0000 O   0  0  0  0  0  0  0  0  0  0  0  0
    5.4641   -8.4050    0.0000 O   0  0  0  0  0  0  0  0  0  0  0  0
   14.9904    8.0950    0.0000 O   0  0  0  0  0  0  0  0  0  0  0  0
    8.9282   -4.4050    0.0000 O   0  0  0  0  0  0  0  0  0  0  0  0
   13.2583    3.0950    0.0000 O   0  0  0  0  0  0  0  0  0  0  0  0
    4.5981   -6.9050    0.0000 O   0  0  0  0  0  0  0  0  0  0  0  0
   13.2583    8.0950    0.0000 O   0  0  0  0  0  0  0  0  0  0  0  0
    3.7320    3.5950    0.0000 N   0  0  0  0  0  0  0  0  0  0  0  0
    4.5981    2.0950    0.0000 N   0  0  0  0  0  0  0  0  0  0  0  0
    5.4641    3.5950    0.0000 N   0  0  0  0  0  0  0  0  0  0  0  0
    6.3301    2.0950    0.0000 N   0  0  0  0  0  0  0  0  0  0  0  0
    6.3301    0.0950    0.0000 N   0  0  0  0  0  0  0  0  0  0  0  0
    8.0622    3.0950    0.0000 N   0  0  0  0  0  0  0  0  0  0  0  0
    6.3301   -3.9050    0.0000 N   0  0  0  0  0  0  0  0  0  0  0  0
   11.5263    5.0950    0.0000 N   0  0  0  0  0  0  0  0  0  0  0  0
    7.1962   -4.4050    0.0000 N   0  0  0  0  0  0  0  0  0  0  0  0
   12.3923    4.5950    0.0000 N   0  0  0  0  0  0  0  0  0  0  0  0
    2.8660    3.0950    0.0000 C   0  0  0  0  0  0  0  0  0  0  0  0
    3.7320    4.5950    0.0000 C   0  0  0  0  0  0  0  0  0  0  0  0
    2.0000    3.5950    0.0000 C   0  0  0  0  0  0  0  0  0  0  0  0
    2.8660    5.0950    0.0000 C   0  0  0  0  0  0  0  0  0  0  0  0
    4.5981    3.0950    0.0000 C   0  0  0  0  0  0  0  0  0  0  0  0
    5.4641    1.5950    0.0000 C   0  0  0  0  0  0  0  0  0  0  0  0
    6.3301    3.0950    0.0000 C   0  0  0  0  0  0  0  0  0  0  0  0
    5.4641    0.5950    0.0000 C   0  0  0  0  0  0  0  0  0  0  0  0
    7.1962    3.5950    0.0000 C   0  0  0  0  0  0  0  0  0  0  0  0
    6.3301   -0.9050    0.0000 C   0  0  0  0  0  0  0  0  0  0  0  0
    8.9282    3.5950    0.0000 C   0  0  0  0  0  0  0  0  0  0  0  0
    5.4641   -1.4050    0.0000 C   0  0  0  0  0  0  0  0  0  0  0  0
    7.1962   -1.4050    0.0000 C   0  0  0  0  0  0  0  0  0  0  0  0
    8.9282    4.5950    0.0000 C   0  0  0  0  0  0  0  0  0  0  0  0
    9.7942    3.0950    0.0000 C   0  0  0  0  0  0  0  0  0  0  0  0
    5.4641   -2.4050    0.0000 C   0  0  0  0  0  0  0  0  0  0  0  0
    7.1962   -2.4050    0.0000 C   0  0  0  0  0  0  0  0  0  0  0  0
    9.7942    5.0950    0.0000 C   0  0  0  0  0  0  0  0  0  0  0  0
   10.6603    3.5950    0.0000 C   0  0  0  0  0  0  0  0  0  0  0  0
    6.3301   -2.9050    0.0000 C   0  0  0  0  0  0  0  0  0  0  0  0
   10.6603    4.5950    0.0000 C   0  0  0  0  0  0  0  0  0  0  0  0
    7.1962   -5.4050    0.0000 C   0  0  0  0  0  0  0  0  0  0  0  0
   13.2583    5.0950    0.0000 C   0  0  0  0  0  0  0  0  0  0  0  0
    8.0622   -5.9050    0.0000 C   0  0  0  0  0  0  0  0  0  0  0  0
   14.1244    4.5950    0.0000 C   0  0  0  0  0  0  0  0  0  0  0  0
    6.3301   -5.9050    0.0000 C   0  0  0  0  0  0  0  0  0  0  0  0
   13.2583    6.0950    0.0000 C   0  0  0  0  0  0  0  0  0  0  0  0
    6.3301   -6.9050    0.0000 C   0  0  0  0  0  0  0  0  0  0  0  0
   14.1244    6.5950    0.0000 C   0  0  0  0  0  0  0  0  0  0  0  0
    8.0622   -6.9050    0.0000 C   0  0  0  0  0  0  0  0  0  0  0  0
   14.9904    5.0950    0.0000 C   0  0  0  0  0  0  0  0  0  0  0  0
    7.1962   -7.4050    0.0000 C   0  0  0  0  0  0  0  0  0  0  0  0
   14.9904    6.0950    0.0000 C   0  0  0  0  0  0  0  0  0  0  0  0
    8.9282   -5.4050    0.0000 C   0  0  0  0  0  0  0  0  0  0  0  0
   14.1244    3.5950    0.0000 C   0  0  0  0  0  0  0  0  0  0  0  0
    5.4641   -7.4050    0.0000 C   0  0  0  0  0  0  0  0  0  0  0  0
   14.1244    7.5950    0.0000 C   0  0  0  0  0  0  0  0  0  0  0  0
    2.4675    2.6200    0.0000 H   0  0  0  0  0  0  0  0  0  0  0  0
    3.2646    2.6200    0.0000 H   0  0  0  0  0  0  0  0  0  0  0  0
    4.3426    4.4873    0.0000 H   0  0  0  0  0  0  0  0  0  0  0  0
    3.9441    5.1776    0.0000 H   0  0  0  0  0  0  0  0  0  0  0  0
    1.3894    3.7027    0.0000 H   0  0  0  0  0  0  0  0  0  0  0  0
    1.7880    3.0124    0.0000 H   0  0  0  0  0  0  0  0  0  0  0  0
    3.2646    5.5700    0.0000 H   0  0  0  0  0  0  0  0  0  0  0  0
    2.4675    5.5700    0.0000 H   0  0  0  0  0  0  0  0  0  0  0  0
    4.8535    0.7027    0.0000 H   0  0  0  0  0  0  0  0  0  0  0  0
    5.2520    0.0124    0.0000 H   0  0  0  0  0  0  0  0  0  0  0  0
    7.5947    4.0700    0.0000 H   0  0  0  0  0  0  0  0  0  0  0  0
    6.7976    4.0700    0.0000 H   0  0  0  0  0  0  0  0  0  0  0  0
    6.8671    0.4050    0.0000 H   0  0  0  0  0  0  0  0  0  0  0  0
    8.0622    2.4750    0.0000 H   0  0  0  0  0  0  0  0  0  0  0  0
    4.9272   -1.0950    0.0000 H   0  0  0  0  0  0  0  0  0  0  0  0
    7.7331   -1.0950    0.0000 H   0  0  0  0  0  0  0  0  0  0  0  0
    8.3913    4.9050    0.0000 H   0  0  0  0  0  0  0  0  0  0  0  0
    9.7942    2.4750    0.0000 H   0  0  0  0  0  0  0  0  0  0  0  0
    4.9272   -2.7150    0.0000 H   0  0  0  0  0  0  0  0  0  0  0  0
    7.7331   -2.7150    0.0000 H   0  0  0  0  0  0  0  0  0  0  0  0
    9.7942    5.7150    0.0000 H   0  0  0  0  0  0  0  0  0  0  0  0
   11.1972    3.2850    0.0000 H   0  0  0  0  0  0  0  0  0  0  0  0
    5.7932   -5.5950    0.0000 H   0  0  0  0  0  0  0  0  0  0  0  0
   12.7214    6.4050    0.0000 H   0  0  0  0  0  0  0  0  0  0  0  0
    8.5991   -7.2150    0.0000 H   0  0  0  0  0  0  0  0  0  0  0  0
   15.5273    4.7850    0.0000 H   0  0  0  0  0  0  0  0  0  0  0  0
    7.1962   -8.0250    0.0000 H   0  0  0  0  0  0  0  0  0  0  0  0
   15.5273    6.4050    0.0000 H   0  0  0  0  0  0  0  0  0  0  0  0
   10.3312   -5.5950    0.0000 H   0  0  0  0  0  0  0  0  0  0  0  0
   14.9904    2.4750    0.0000 H   0  0  0  0  0  0  0  0  0  0  0  0
    4.9272   -8.7150    0.0000 H   0  0  0  0  0  0  0  0  0  0  0  0
   14.9904    8.7150    0.0000 H   0  0  0  0  0  0  0  0  0  0  0  0
  1 22  1  0  0  0  0
  1 23  1  0  0  0  0
  2 53  1  0  0  0  0
  2 85  1  0  0  0  0
  3 54  1  0  0  0  0
  3 86  1  0  0  0  0
  4 55  1  0  0  0  0
  4 87  1  0  0  0  0
  5 56  1  0  0  0  0
  5 88  1  0  0  0  0
  6 53  2  0  0  0  0
  7 54  2  0  0  0  0
  8 55  2  0  0  0  0
  9 56  2  0  0  0  0
 10 20  1  0  0  0  0
 10 21  1  0  0  0  0
 10 24  1  0  0  0  0
 11 24  2  0  0  0  0
 11 25  1  0  0  0  0
 12 24  1  0  0  0  0
 12 26  2  0  0  0  0
 13 25  2  0  0  0  0
 13 26  1  0  0  0  0
 14 27  1  0  0  0  0
 14 29  1  0  0  0  0
 14 69  1  0  0  0  0
 15 28  1  0  0  0  0
 15 30  1  0  0  0  0
 15 70  1  0  0  0  0
 16 18  2  0  0  0  0
 16 39  1  0  0  0  0
 17 19  2  0  0  0  0
 17 40  1  0  0  0  0
 18 41  1  0  0  0  0
 19 42  1  0  0  0  0
 20 22  1  0  0  0  0
 20 57  1  0  0  0  0
 20 58  1  0  0  0  0
 21 23  1  0  0  0  0
 21 59  1  0  0  0  0
 21 60  1  0  0  0  0
 22 61  1  0  0  0  0
 22 62  1  0  0  0  0
 23 63  1  0  0  0  0
 23 64  1  0  0  0  0
 25 27  1  0  0  0  0
 26 28  1  0  0  0  0
 27 65  1  0  0  0  0
 27 66  1  0  0  0  0
 28 67  1  0  0  0  0
 28 68  1  0  0  0  0
 29 31  2  0  0  0  0
 29 32  1  0  0  0  0
 30 33  2  0  0  0  0
 30 34  1  0  0  0  0
 31 35  1  0  0  0  0
 31 71  1  0  0  0  0
 32 36  2  0  0  0  0
 32 72  1  0  0  0  0
 33 37  1  0  0  0  0
 33 73  1  0  0  0  0
 34 38  2  0  0  0  0
 34 74  1  0  0  0  0
 35 39  2  0  0  0  0
 35 75  1  0  0  0  0
 36 39  1  0  0  0  0
 36 76  1  0  0  0  0
 37 40  2  0  0  0  0
 37 77  1  0  0  0  0
 38 40  1  0  0  0  0
 38 78  1  0  0  0  0
 41 43  2  0  0  0  0
 41 45  1  0  0  0  0
 42 44  2  0  0  0  0
 42 46  1  0  0  0  0
 43 49  1  0  0  0  0
 43 53  1  0  0  0  0
 44 50  1  0  0  0  0
 44 54  1  0  0  0  0
 45 47  2  0  0  0  0
 45 79  1  0  0  0  0
 46 48  2  0  0  0  0
 46 80  1  0  0  0  0
 47 51  1  0  0  0  0
 47 55  1  0  0  0  0
 48 52  1  0  0  0  0
 48 56  1  0  0  0  0
 49 51  2  0  0  0  0
 49 81  1  0  0  0  0
 50 52  2  0  0  0  0
 50 82  1  0  0  0  0
 51 83  1  0  0  0  0
 52 84  1  0  0  0  0
M  END
> <PUBCHEM_COMPOUND_CID>
53670490

> <PUBCHEM_COMPOUND_CANONICALIZED>
1

> <PUBCHEM_CACTVS_COMPLEXITY>
1290

> <PUBCHEM_CACTVS_HBOND_ACCEPTOR>
19

> <PUBCHEM_CACTVS_HBOND_DONOR>
6

> <PUBCHEM_CACTVS_ROTATABLE_BOND>
15

> <PUBCHEM_CACTVS_SUBSKEYS>
AAADcfB//AAAAAAAAAAAAAAAAAAAAAAAAAA8eMGCAAAAAAAB1AAAHgAYCAAADAjhmwYx2IfIFgCqAibybACCgAklAqAJiIEYbMiKbjrAnZGXcYhu0APY2ce8yDCOQACAQAACAACAAQCAAAQAAAAAAAAAAA==

> <PUBCHEM_IUPAC_OPENEYE_NAME>
2-[4-[[4-[[4-(2,5-dicarboxyphenyl)azoanilino]methyl]-6-morpholino-1,3,5-triazin-2-yl]methylamino]phenyl]azoterephthalic acid

> <PUBCHEM_IUPAC_CAS_NAME>
2-[4-[[4-[[4-(2,5-dicarboxyphenyl)azoanilino]methyl]-6-(4-morpholinyl)-1,3,5-triazin-2-yl]methylamino]phenyl]azoterephthalic acid

> <PUBCHEM_IUPAC_NAME_MARKUP>
2-[[4-[[4-[[4-[(2,5-dicarboxyphenyl)diazenyl]anilino]methyl]-6-morpholin-4-yl-1,3,5-triazin-2-yl]methylamino]phenyl]diazenyl]terephthalic acid

> <PUBCHEM_IUPAC_NAME>
2-[[4-[[4-[[4-[(2,5-dicarboxyphenyl)diazenyl]anilino]methyl]-6-morpholin-4-yl-1,3,5-triazin-2-yl]methylamino]phenyl]diazenyl]terephthalic acid

> <PUBCHEM_IUPAC_SYSTEMATIC_NAME>
2-[[4-[[4-[[[4-[(2,5-dicarboxyphenyl)diazenyl]phenyl]amino]methyl]-6-morpholin-4-yl-1,3,5-triazin-2-yl]methylamino]phenyl]diazenyl]terephthalic acid

> <PUBCHEM_IUPAC_TRADITIONAL_NAME>
2-[4-[[4-[[4-(2,5-dicarboxyphenyl)azoanilino]methyl]-6-morpholino-s-triazin-2-yl]methylamino]phenyl]azoterephthalic acid

> <PUBCHEM_IUPAC_INCHI>
InChI=1S/C37H32N10O9/c48-33(49)21-1-11-27(35(52)53)29(17-21)45-43-25-7-3-23(4-8-25)38-19-31-40-32(42-37(41-31)47-13-15-56-16-14-47)20-39-24-5-9-26(10-6-24)44-46-30-18-22(34(50)51)2-12-28(30)36(54)55/h1-12,17-18,38-39H,13-16,19-20H2,(H,48,49)(H,50,51)(H,52,53)(H,54,55)

> <PUBCHEM_IUPAC_INCHIKEY>
CMCUFZHRZDXTOX-UHFFFAOYSA-N

> <PUBCHEM_XLOGP3_AA>
4.7

> <PUBCHEM_EXACT_MASS>
760.23537264

> <PUBCHEM_MOLECULAR_FORMULA>
C37H32N10O9

> <PUBCHEM_MOLECULAR_WEIGHT>
760.7

> <PUBCHEM_OPENEYE_CAN_SMILES>
C1COCCN1C2=NC(=NC(=N2)CNC3=CC=C(C=C3)N=NC4=C(C=CC(=C4)C(=O)O)C(=O)O)CNC5=CC=C(C=C5)N=NC6=C(C=CC(=C6)C(=O)O)C(=O)O

> <PUBCHEM_OPENEYE_ISO_SMILES>
C1COCCN1C2=NC(=NC(=N2)CNC3=CC=C(C=C3)N=NC4=C(C=CC(=C4)C(=O)O)C(=O)O)CNC5=CC=C(C=C5)N=NC6=C(C=CC(=C6)C(=O)O)C(=O)O

> <PUBCHEM_CACTVS_TPSA>
274

> <PUBCHEM_MONOISOTOPIC_WEIGHT>
760.23537264

> <PUBCHEM_TOTAL_CHARGE>
0

> <PUBCHEM_HEAVY_ATOM_COUNT>
56

> <PUBCHEM_ATOM_DEF_STEREO_COUNT>
0

> <PUBCHEM_ATOM_UDEF_STEREO_COUNT>
0

> <PUBCHEM_BOND_DEF_STEREO_COUNT>
0

> <PUBCHEM_BOND_UDEF_STEREO_COUNT>
0

> <PUBCHEM_ISOTOPIC_ATOM_COUNT>
0

> <PUBCHEM_COMPONENT_COUNT>
1

> <PUBCHEM_CACTVS_TAUTO_COUNT>
-1

> <PUBCHEM_COORDINATE_TYPE>
1
5
255

> <PUBCHEM_BONDANNOTATIONS>
11  24  8
11  25  8
12  24  8
12  26  8
13  25  8
13  26  8
29  31  8
29  32  8
30  33  8
30  34  8
31  35  8
32  36  8
33  37  8
34  38  8
35  39  8
36  39  8
37  40  8
38  40  8
41  43  8
41  45  8
42  44  8
42  46  8
43  49  8
44  50  8
45  47  8
46  48  8
47  51  8
48  52  8
49  51  8
50  52  8

$$$$
