 
  -OEChem-10192103572D

 41 40  0     0  0  0  0  0  0999 V2000
    8.9282    3.6550    0.0000 O   0  0  0  0  0  0  0  0  0  0  0  0
    5.4641    3.6550    0.0000 O   0  0  0  0  0  0  0  0  0  0  0  0
    8.0622    5.1550    0.0000 O   0  0  0  0  0  0  0  0  0  0  0  0
    6.3301    5.1550    0.0000 O   0  0  0  0  0  0  0  0  0  0  0  0
    2.8660   -4.8450    0.0000 O   0  0  0  0  0  0  0  0  0  0  0  0
    2.0000   -3.3450    0.0000 O   0  0  0  0  0  0  0  0  0  0  0  0
    5.4641    0.6550    0.0000 C   0  0  0  0  0  0  0  0  0  0  0  0
    5.4641   -0.3450    0.0000 C   0  0  0  0  0  0  0  0  0  0  0  0
    6.3301    1.1550    0.0000 C   0  0  0  0  0  0  0  0  0  0  0  0
    4.5981   -0.8450    0.0000 C   0  0  0  0  0  0  0  0  0  0  0  0
    6.3301    2.1550    0.0000 C   0  0  0  0  0  0  0  0  0  0  0  0
    4.5981   -1.8450    0.0000 C   0  0  0  0  0  0  0  0  0  0  0  0
    7.1962    2.6550    0.0000 C   0  0  0  0  0  0  0  0  0  0  0  0
    3.7320   -2.3450    0.0000 C   0  0  0  0  0  0  0  0  0  0  0  0
    7.1962    3.6550    0.0000 C   0  0  0  0  0  0  0  0  0  0  0  0
    3.7320   -3.3450    0.0000 C   0  0  0  0  0  0  0  0  0  0  0  0
    8.0622    4.1550    0.0000 C   0  0  0  0  0  0  0  0  0  0  0  0
    6.3301    4.1550    0.0000 C   0  0  0  0  0  0  0  0  0  0  0  0
    2.8660   -3.8450    0.0000 C   0  0  0  0  0  0  0  0  0  0  0  0
    5.2520    1.2376    0.0000 H   0  0  0  0  0  0  0  0  0  0  0  0
    4.8535    0.5473    0.0000 H   0  0  0  0  0  0  0  0  0  0  0  0
    5.6762   -0.9276    0.0000 H   0  0  0  0  0  0  0  0  0  0  0  0
    6.0747   -0.2373    0.0000 H   0  0  0  0  0  0  0  0  0  0  0  0
    6.5422    0.5724    0.0000 H   0  0  0  0  0  0  0  0  0  0  0  0
    6.9407    1.2627    0.0000 H   0  0  0  0  0  0  0  0  0  0  0  0
    4.3860   -0.2624    0.0000 H   0  0  0  0  0  0  0  0  0  0  0  0
    3.9875   -0.9527    0.0000 H   0  0  0  0  0  0  0  0  0  0  0  0
    6.1181    2.7376    0.0000 H   0  0  0  0  0  0  0  0  0  0  0  0
    5.7196    2.0473    0.0000 H   0  0  0  0  0  0  0  0  0  0  0  0
    4.8101   -2.4276    0.0000 H   0  0  0  0  0  0  0  0  0  0  0  0
    5.2087   -1.7373    0.0000 H   0  0  0  0  0  0  0  0  0  0  0  0
    7.4082    2.0724    0.0000 H   0  0  0  0  0  0  0  0  0  0  0  0
    7.8067    2.7627    0.0000 H   0  0  0  0  0  0  0  0  0  0  0  0
    3.5200   -1.7624    0.0000 H   0  0  0  0  0  0  0  0  0  0  0  0
    3.1215   -2.4527    0.0000 H   0  0  0  0  0  0  0  0  0  0  0  0
    6.6592    3.3450    0.0000 H   0  0  0  0  0  0  0  0  0  0  0  0
    3.9441   -3.9276    0.0000 H   0  0  0  0  0  0  0  0  0  0  0  0
    4.3426   -3.2373    0.0000 H   0  0  0  0  0  0  0  0  0  0  0  0
    9.4651    3.9650    0.0000 H   0  0  0  0  0  0  0  0  0  0  0  0
    4.9272    3.9650    0.0000 H   0  0  0  0  0  0  0  0  0  0  0  0
    2.3291   -5.1550    0.0000 H   0  0  0  0  0  0  0  0  0  0  0  0
  1 17  1  0  0  0  0
  1 39  1  0  0  0  0
  2 18  1  0  0  0  0
  2 40  1  0  0  0  0
  3 17  2  0  0  0  0
  4 18  2  0  0  0  0
  5 19  1  0  0  0  0
  5 41  1  0  0  0  0
  6 19  2  0  0  0  0
  7  8  1  0  0  0  0
  7  9  1  0  0  0  0
  7 20  1  0  0  0  0
  7 21  1  0  0  0  0
  8 10  1  0  0  0  0
  8 22  1  0  0  0  0
  8 23  1  0  0  0  0
  9 11  1  0  0  0  0
  9 24  1  0  0  0  0
  9 25  1  0  0  0  0
 10 12  1  0  0  0  0
 10 26  1  0  0  0  0
 10 27  1  0  0  0  0
 11 13  1  0  0  0  0
 11 28  1  0  0  0  0
 11 29  1  0  0  0  0
 12 14  1  0  0  0  0
 12 30  1  0  0  0  0
 12 31  1  0  0  0  0
 13 15  1  0  0  0  0
 13 32  1  0  0  0  0
 13 33  1  0  0  0  0
 14 16  1  0  0  0  0
 14 34  1  0  0  0  0
 14 35  1  0  0  0  0
 15 17  1  0  0  0  0
 15 18  1  0  0  0  0
 15 36  1  0  0  0  0
 16 19  1  0  0  0  0
 16 37  1  0  0  0  0
 16 38  1  0  0  0  0
M  END
> <PUBCHEM_COMPOUND_CID>
89871421

> <PUBCHEM_COMPOUND_CANONICALIZED>
1

> <PUBCHEM_CACTVS_COMPLEXITY>
286

> <PUBCHEM_CACTVS_HBOND_ACCEPTOR>
6

> <PUBCHEM_CACTVS_HBOND_DONOR>
3

> <PUBCHEM_CACTVS_ROTATABLE_BOND>
12

> <PUBCHEM_CACTVS_SUBSKEYS>
AAADceBwOAAAAAAAAAAAAAAAAAAAAAAAAAAAAAAAAAAAAAAAAAAAGgAACAAADQCAgAAACAAAAgAIAACQCAAAAAAAAAAAAAEAAAAAABYIAAAAQAAFIAAAAAGIyOCMAAAAAAAAAAAAAAAAAAAAAAAAAAAAAA==

> <PUBCHEM_IUPAC_OPENEYE_NAME>
decane-1,1,10-tricarboxylic acid

> <PUBCHEM_IUPAC_CAS_NAME>
decane-1,1,10-tricarboxylic acid

> <PUBCHEM_IUPAC_NAME_MARKUP>
decane-1,1,10-tricarboxylic acid

> <PUBCHEM_IUPAC_NAME>
decane-1,1,10-tricarboxylic acid

> <PUBCHEM_IUPAC_SYSTEMATIC_NAME>
decane-1,1,10-tricarboxylic acid

> <PUBCHEM_IUPAC_TRADITIONAL_NAME>
decane-1,1,10-tricarboxylic acid

> <PUBCHEM_IUPAC_INCHI>
InChI=1S/C13H22O6/c14-11(15)9-7-5-3-1-2-4-6-8-10(12(16)17)13(18)19/h10H,1-9H2,(H,14,15)(H,16,17)(H,18,19)

> <PUBCHEM_IUPAC_INCHIKEY>
SLVPNHYWPKINDI-UHFFFAOYSA-N

> <PUBCHEM_XLOGP3_AA>
3

> <PUBCHEM_EXACT_MASS>
274.14163842

> <PUBCHEM_MOLECULAR_FORMULA>
C13H22O6

> <PUBCHEM_MOLECULAR_WEIGHT>
274.31

> <PUBCHEM_OPENEYE_CAN_SMILES>
C(CCCCC(C(=O)O)C(=O)O)CCCCC(=O)O

> <PUBCHEM_OPENEYE_ISO_SMILES>
C(CCCCC(C(=O)O)C(=O)O)CCCCC(=O)O

> <PUBCHEM_CACTVS_TPSA>
112

> <PUBCHEM_MONOISOTOPIC_WEIGHT>
274.14163842

> <PUBCHEM_TOTAL_CHARGE>
0

> <PUBCHEM_HEAVY_ATOM_COUNT>
19

> <PUBCHEM_ATOM_DEF_STEREO_COUNT>
0

> <PUBCHEM_ATOM_UDEF_STEREO_COUNT>
0

> <PUBCHEM_BOND_DEF_STEREO_COUNT>
0

> <PUBCHEM_BOND_UDEF_STEREO_COUNT>
0

> <PUBCHEM_ISOTOPIC_ATOM_COUNT>
0

> <PUBCHEM_COMPONENT_COUNT>
1

> <PUBCHEM_CACTVS_TAUTO_COUNT>
-1

> <PUBCHEM_COORDINATE_TYPE>
1
5
255

$$$$
