 
  -OEChem-10192103592D

 25 25  0     0  0  0  0  0  0999 V2000
    3.0000    1.1085    0.0000 S   0  0  0  0  0  0  0  0  0  0  0  0
    3.8660    2.6085    0.0000 P   0  3  0  0  0  0  0  0  0  0  0  0
    4.0000    1.1085    0.0000 O   0  0  0  0  0  0  0  0  0  0  0  0
    2.0000    1.1085    0.0000 O   0  0  0  0  0  0  0  0  0  0  0  0
    4.7320    3.1085    0.0000 O   0  0  0  0  0  0  0  0  0  0  0  0
    3.3660    3.4745    0.0000 O   0  0  0  0  0  0  0  0  0  0  0  0
    4.3660    1.7425    0.0000 O   0  5  0  0  0  0  0  0  0  0  0  0
    2.1340   -3.3915    0.0000 O   0  0  0  0  0  0  0  0  0  0  0  0
    3.8660   -3.3915    0.0000 O   0  0  0  0  0  0  0  0  0  0  0  0
    3.0000    2.1085    0.0000 N   0  0  0  0  0  0  0  0  0  0  0  0
    3.0000    0.1085    0.0000 C   0  0  0  0  0  0  0  0  0  0  0  0
    2.1340   -0.3915    0.0000 C   0  0  0  0  0  0  0  0  0  0  0  0
    3.8660   -0.3915    0.0000 C   0  0  0  0  0  0  0  0  0  0  0  0
    3.0000   -1.8915    0.0000 C   0  0  0  0  0  0  0  0  0  0  0  0
    2.1340   -1.3915    0.0000 C   0  0  0  0  0  0  0  0  0  0  0  0
    3.8660   -1.3915    0.0000 C   0  0  0  0  0  0  0  0  0  0  0  0
    3.0000   -2.8915    0.0000 C   0  0  0  0  0  0  0  0  0  0  0  0
    2.4631    2.4185    0.0000 H   0  0  0  0  0  0  0  0  0  0  0  0
    1.5970   -0.0815    0.0000 H   0  0  0  0  0  0  0  0  0  0  0  0
    4.4030   -0.0815    0.0000 H   0  0  0  0  0  0  0  0  0  0  0  0
    1.5970   -1.7015    0.0000 H   0  0  0  0  0  0  0  0  0  0  0  0
    4.4030   -1.7015    0.0000 H   0  0  0  0  0  0  0  0  0  0  0  0
    4.7320    3.7285    0.0000 H   0  0  0  0  0  0  0  0  0  0  0  0
    3.6760    4.0115    0.0000 H   0  0  0  0  0  0  0  0  0  0  0  0
    2.1340   -4.0115    0.0000 H   0  0  0  0  0  0  0  0  0  0  0  0
  1  3  2  0  0  0  0
  1  4  2  0  0  0  0
  1 10  1  0  0  0  0
  1 11  1  0  0  0  0
  2  5  1  0  0  0  0
  2  6  1  0  0  0  0
  2  7  1  0  0  0  0
  2 10  1  0  0  0  0
  5 23  1  0  0  0  0
  6 24  1  0  0  0  0
  8 17  1  0  0  0  0
  8 25  1  0  0  0  0
  9 17  2  0  0  0  0
 10 18  1  0  0  0  0
 11 12  2  0  0  0  0
 11 13  1  0  0  0  0
 12 15  1  0  0  0  0
 12 19  1  0  0  0  0
 13 16  2  0  0  0  0
 13 20  1  0  0  0  0
 14 15  2  0  0  0  0
 14 16  1  0  0  0  0
 14 17  1  0  0  0  0
 15 21  1  0  0  0  0
 16 22  1  0  0  0  0
M  CHG  2   2   1   7  -1
M  END
> <PUBCHEM_COMPOUND_CID>
101068498

> <PUBCHEM_COMPOUND_CANONICALIZED>
1

> <PUBCHEM_CACTVS_COMPLEXITY>
382

> <PUBCHEM_CACTVS_HBOND_ACCEPTOR>
8

> <PUBCHEM_CACTVS_HBOND_DONOR>
4

> <PUBCHEM_CACTVS_ROTATABLE_BOND>
4

> <PUBCHEM_CACTVS_SUBSKEYS>
AAADccBiOAJAAAAAAAAAAAAAAAAAAAAAAAAwAAAAAAAAAAABAAAAGgQQyCAADACA2AAwCYAAAhKIAiDSCHBCABAkAAAIiBkACMgIJjKAFRCAcQAkwAEImYeIyCCOEAAAAAAAAAAgAAAAAAAAAAAAAAAAAA==

> <PUBCHEM_IUPAC_OPENEYE_NAME>
4-(phosphonosulfamoyl)benzoic acid

> <PUBCHEM_IUPAC_CAS_NAME>
4-(phosphonosulfamoyl)benzoic acid

> <PUBCHEM_IUPAC_NAME_MARKUP>
4-(phosphonosulfamoyl)benzoic acid

> <PUBCHEM_IUPAC_NAME>
4-(phosphonosulfamoyl)benzoic acid

> <PUBCHEM_IUPAC_SYSTEMATIC_NAME>
4-(phosphonosulfamoyl)benzoic acid

> <PUBCHEM_IUPAC_TRADITIONAL_NAME>
4-(phosphonosulfamoyl)benzoic acid

> <PUBCHEM_IUPAC_INCHI>
InChI=1S/C7H8NO7PS/c9-7(10)5-1-3-6(4-2-5)17(14,15)8-16(11,12)13/h1-4H,(H,9,10)(H3,8,11,12,13)

> <PUBCHEM_IUPAC_INCHIKEY>
GUTLPPBNXQPSRW-UHFFFAOYSA-N

> <PUBCHEM_XLOGP3_AA>
-1.2

> <PUBCHEM_EXACT_MASS>
280.97590977

> <PUBCHEM_MOLECULAR_FORMULA>
C7H8NO7PS

> <PUBCHEM_MOLECULAR_WEIGHT>
281.18

> <PUBCHEM_OPENEYE_CAN_SMILES>
C1=CC(=CC=C1C(=O)O)S(=O)(=O)N[P+](O)(O)[O-]

> <PUBCHEM_OPENEYE_ISO_SMILES>
C1=CC(=CC=C1C(=O)O)S(=O)(=O)N[P+](O)(O)[O-]

> <PUBCHEM_CACTVS_TPSA>
155

> <PUBCHEM_MONOISOTOPIC_WEIGHT>
280.97590977

> <PUBCHEM_TOTAL_CHARGE>
0

> <PUBCHEM_HEAVY_ATOM_COUNT>
17

> <PUBCHEM_ATOM_DEF_STEREO_COUNT>
0

> <PUBCHEM_ATOM_UDEF_STEREO_COUNT>
0

> <PUBCHEM_BOND_DEF_STEREO_COUNT>
0

> <PUBCHEM_BOND_UDEF_STEREO_COUNT>
0

> <PUBCHEM_ISOTOPIC_ATOM_COUNT>
0

> <PUBCHEM_COMPONENT_COUNT>
1

> <PUBCHEM_CACTVS_TAUTO_COUNT>
-1

> <PUBCHEM_COORDINATE_TYPE>
1
5
255

> <PUBCHEM_BONDANNOTATIONS>
11  12  8
11  13  8
12  15  8
13  16  8
14  15  8
14  16  8

$$$$
