 
  -OEChem-10192103382D

 68 72  0     1  0  0  0  0  0999 V2000
    8.5991   -1.6796    0.0000 O   0  0  0  0  0  0  0  0  0  0  0  0
    6.0010   -2.1796    0.0000 O   0  0  0  0  0  0  0  0  0  0  0  0
    4.2690   -2.1796    0.0000 O   0  0  0  0  0  0  0  0  0  0  0  0
    6.8671   -3.6796    0.0000 O   0  0  0  0  0  0  0  0  0  0  0  0
    8.5991   -4.6796    0.0000 O   0  0  0  0  0  0  0  0  0  0  0  0
   10.3312   -1.6796    0.0000 O   0  0  0  0  0  0  0  0  0  0  0  0
   10.3312   -3.6796    0.0000 O   0  0  0  0  0  0  0  0  0  0  0  0
    6.0010   -0.1796    0.0000 O   0  0  0  0  0  0  0  0  0  0  0  0
    4.2690    0.8204    0.0000 O   0  0  0  0  0  0  0  0  0  0  0  0
    2.5369   -0.1796    0.0000 O   0  0  0  0  0  0  0  0  0  0  0  0
   12.0871    1.3829    0.0000 O   0  0  0  0  0  0  0  0  0  0  0  0
    8.5849    1.3996    0.0000 O   0  0  0  0  0  0  0  0  0  0  0  0
    9.4948    2.8930    0.0000 O   0  0  0  0  0  0  0  0  0  0  0  0
   15.5628    4.3696    0.0000 O   0  0  0  0  0  0  0  0  0  0  0  0
    7.7331   -2.1796    0.0000 C   0  0  3  0  0  0  0  0  0  0  0  0
    7.7331   -3.1796    0.0000 C   0  0  2  0  0  0  0  0  0  0  0  0
    8.5991   -3.6796    0.0000 C   0  0  1  0  0  0  0  0  0  0  0  0
    9.4651   -3.1796    0.0000 C   0  0  3  0  0  0  0  0  0  0  0  0
    9.4651   -2.1796    0.0000 C   0  0  1  0  0  0  0  0  0  0  0  0
    6.8671   -1.6796    0.0000 C   0  0  0  0  0  0  0  0  0  0  0  0
    5.1350   -1.6796    0.0000 C   0  0  2  0  0  0  0  0  0  0  0  0
    5.1350   -0.6796    0.0000 C   0  0  1  0  0  0  0  0  0  0  0  0
    4.2690   -0.1796    0.0000 C   0  0  3  0  0  0  0  0  0  0  0  0
    3.4030   -0.6796    0.0000 C   0  0  2  0  0  0  0  0  0  0  0  0
    3.4030   -1.6796    0.0000 C   0  0  0  0  0  0  0  0  0  0  0  0
   10.3312   -0.6796    0.0000 C   0  0  0  0  0  0  0  0  0  0  0  0
   11.2312   -0.1553    0.0000 C   0  0  0  0  0  0  0  0  0  0  0  0
    9.4311   -0.1553    0.0000 C   0  0  0  0  0  0  0  0  0  0  0  0
   11.2192    0.8863    0.0000 C   0  0  0  0  0  0  0  0  0  0  0  0
    9.4431    0.8863    0.0000 C   0  0  0  0  0  0  0  0  0  0  0  0
   10.3551    1.3896    0.0000 C   0  0  0  0  0  0  0  0  0  0  0  0
   10.3589    2.3896    0.0000 C   0  0  0  0  0  0  0  0  0  0  0  0
   12.0910    2.3829    0.0000 C   0  0  0  0  0  0  0  0  0  0  0  0
   11.2269    2.8863    0.0000 C   0  0  0  0  0  0  0  0  0  0  0  0
   12.9589    2.8796    0.0000 C   0  0  0  0  0  0  0  0  0  0  0  0
   12.9628    3.8796    0.0000 C   0  0  0  0  0  0  0  0  0  0  0  0
   13.8230    2.3763    0.0000 C   0  0  0  0  0  0  0  0  0  0  0  0
   13.8307    4.3762    0.0000 C   0  0  0  0  0  0  0  0  0  0  0  0
   14.6910    2.8729    0.0000 C   0  0  0  0  0  0  0  0  0  0  0  0
   14.6948    3.8729    0.0000 C   0  0  0  0  0  0  0  0  0  0  0  0
    7.7331   -1.5596    0.0000 H   0  0  0  0  0  0  0  0  0  0  0  0
    7.7331   -3.7996    0.0000 H   0  0  0  0  0  0  0  0  0  0  0  0
    9.1360   -3.9896    0.0000 H   0  0  0  0  0  0  0  0  0  0  0  0
    9.4651   -3.7996    0.0000 H   0  0  0  0  0  0  0  0  0  0  0  0
   10.0021   -2.4896    0.0000 H   0  0  0  0  0  0  0  0  0  0  0  0
    7.2656   -1.2046    0.0000 H   0  0  0  0  0  0  0  0  0  0  0  0
    6.4685   -1.2046    0.0000 H   0  0  0  0  0  0  0  0  0  0  0  0
    5.6720   -1.3696    0.0000 H   0  0  0  0  0  0  0  0  0  0  0  0
    5.1350   -0.0596    0.0000 H   0  0  0  0  0  0  0  0  0  0  0  0
    3.7320    0.1304    0.0000 H   0  0  0  0  0  0  0  0  0  0  0  0
    3.4030   -0.0596    0.0000 H   0  0  0  0  0  0  0  0  0  0  0  0
    2.7924   -1.5719    0.0000 H   0  0  0  0  0  0  0  0  0  0  0  0
    3.1909   -2.2622    0.0000 H   0  0  0  0  0  0  0  0  0  0  0  0
    6.8671   -4.2996    0.0000 H   0  0  0  0  0  0  0  0  0  0  0  0
    8.0622   -4.9896    0.0000 H   0  0  0  0  0  0  0  0  0  0  0  0
   10.3312   -4.2996    0.0000 H   0  0  0  0  0  0  0  0  0  0  0  0
    6.0010    0.4404    0.0000 H   0  0  0  0  0  0  0  0  0  0  0  0
    3.7320    1.1304    0.0000 H   0  0  0  0  0  0  0  0  0  0  0  0
    2.0000   -0.4896    0.0000 H   0  0  0  0  0  0  0  0  0  0  0  0
   11.7705   -0.4611    0.0000 H   0  0  0  0  0  0  0  0  0  0  0  0
    8.8918   -0.4611    0.0000 H   0  0  0  0  0  0  0  0  0  0  0  0
   11.2293    3.5063    0.0000 H   0  0  0  0  0  0  0  0  0  0  0  0
    8.0433    1.0979    0.0000 H   0  0  0  0  0  0  0  0  0  0  0  0
   12.4270    4.1916    0.0000 H   0  0  0  0  0  0  0  0  0  0  0  0
   13.8206    1.7563    0.0000 H   0  0  0  0  0  0  0  0  0  0  0  0
   13.8331    4.9962    0.0000 H   0  0  0  0  0  0  0  0  0  0  0  0
   15.2267    2.5608    0.0000 H   0  0  0  0  0  0  0  0  0  0  0  0
   15.5652    4.9896    0.0000 H   0  0  0  0  0  0  0  0  0  0  0  0
  1 15  1  0  0  0  0
  1 19  1  0  0  0  0
  2 20  1  0  0  0  0
 21  2  1  6  0  0  0
  3 21  1  0  0  0  0
  3 25  1  0  0  0  0
 16  4  1  6  0  0  0
  4 54  1  0  0  0  0
 17  5  1  1  0  0  0
  5 55  1  0  0  0  0
 19  6  1  1  0  0  0
  6 26  1  0  0  0  0
  7 18  1  0  0  0  0
  7 56  1  0  0  0  0
 22  8  1  1  0  0  0
  8 57  1  0  0  0  0
  9 23  1  0  0  0  0
  9 58  1  0  0  0  0
 24 10  1  6  0  0  0
 10 59  1  0  0  0  0
 11 29  1  0  0  0  0
 11 33  1  0  0  0  0
 12 30  1  0  0  0  0
 12 63  1  0  0  0  0
 13 32  2  0  0  0  0
 14 40  1  0  0  0  0
 14 68  1  0  0  0  0
 15 16  1  0  0  0  0
 15 20  1  0  0  0  0
 15 41  1  0  0  0  0
 16 17  1  0  0  0  0
 16 42  1  0  0  0  0
 17 18  1  0  0  0  0
 17 43  1  0  0  0  0
 18 19  1  0  0  0  0
 18 44  1  0  0  0  0
 19 45  1  0  0  0  0
 20 46  1  0  0  0  0
 20 47  1  0  0  0  0
 21 22  1  0  0  0  0
 21 48  1  0  0  0  0
 22 23  1  0  0  0  0
 22 49  1  0  0  0  0
 23 24  1  0  0  0  0
 23 50  1  0  0  0  0
 24 25  1  0  0  0  0
 24 51  1  0  0  0  0
 25 52  1  0  0  0  0
 25 53  1  0  0  0  0
 26 27  1  0  0  0  0
 26 28  2  0  0  0  0
 27 29  2  0  0  0  0
 27 60  1  0  0  0  0
 28 30  1  0  0  0  0
 28 61  1  0  0  0  0
 29 31  1  0  0  0  0
 30 31  2  0  0  0  0
 31 32  1  0  0  0  0
 32 34  1  0  0  0  0
 33 34  2  0  0  0  0
 33 35  1  0  0  0  0
 34 62  1  0  0  0  0
 35 36  2  0  0  0  0
 35 37  1  0  0  0  0
 36 38  1  0  0  0  0
 36 64  1  0  0  0  0
 37 39  2  0  0  0  0
 37 65  1  0  0  0  0
 38 40  2  0  0  0  0
 38 66  1  0  0  0  0
 39 40  1  0  0  0  0
 39 67  1  0  0  0  0
M  END
> <PUBCHEM_COMPOUND_CID>
44257808

> <PUBCHEM_COMPOUND_CANONICALIZED>
1

> <PUBCHEM_CACTVS_COMPLEXITY>
908

> <PUBCHEM_CACTVS_HBOND_ACCEPTOR>
14

> <PUBCHEM_CACTVS_HBOND_DONOR>
8

> <PUBCHEM_CACTVS_ROTATABLE_BOND>
6

> <PUBCHEM_CACTVS_SUBSKEYS>
AAADceB4PAAAAAAAAAAAAAAAAAAAAAAAAAA0aIECAAAAAACBQAAAGgAACAAADBSwmAMwDoAABgCIAqBSAAACCAAkIAAIiAEGCMgdNzaGNRqieWCl4BUPuQfI7KzOIAAACAAIAABAAAAQABAAAAAAAAAAAA==

> <PUBCHEM_IUPAC_OPENEYE_NAME>
5-hydroxy-2-(4-hydroxyphenyl)-7-[(2S,4S,5S)-3,4,5-trihydroxy-6-[[(2S,3R,5S)-3,4,5-trihydroxytetrahydropyran-2-yl]oxymethyl]tetrahydropyran-2-yl]oxy-chromen-4-one

> <PUBCHEM_IUPAC_CAS_NAME>
5-hydroxy-2-(4-hydroxyphenyl)-7-[[(2S,4S,5S)-3,4,5-trihydroxy-6-[[(2S,3R,5S)-3,4,5-trihydroxy-2-oxanyl]oxymethyl]-2-oxanyl]oxy]-1-benzopyran-4-one

> <PUBCHEM_IUPAC_NAME_MARKUP>
5-hydroxy-2-(4-hydroxyphenyl)-7-[(2<I>S</I>,4<I>S</I>,5<I>S</I>)-3,4,5-trihydroxy-6-[[(2<I>S</I>,3<I>R</I>,5<I>S</I>)-3,4,5-trihydroxyoxan-2-yl]oxymethyl]oxan-2-yl]oxychromen-4-one

> <PUBCHEM_IUPAC_NAME>
5-hydroxy-2-(4-hydroxyphenyl)-7-[(2S,4S,5S)-3,4,5-trihydroxy-6-[[(2S,3R,5S)-3,4,5-trihydroxyoxan-2-yl]oxymethyl]oxan-2-yl]oxychromen-4-one

> <PUBCHEM_IUPAC_SYSTEMATIC_NAME>
2-(4-hydroxyphenyl)-5-oxidanyl-7-[(2S,4S,5S)-3,4,5-tris(oxidanyl)-6-[[(2S,3R,5S)-3,4,5-tris(oxidanyl)oxan-2-yl]oxymethyl]oxan-2-yl]oxy-chromen-4-one

> <PUBCHEM_IUPAC_TRADITIONAL_NAME>
5-hydroxy-2-(4-hydroxyphenyl)-7-[(2S,4S,5S)-3,4,5-trihydroxy-6-[[(2S,3R,5S)-3,4,5-trihydroxytetrahydropyran-2-yl]oxymethyl]tetrahydropyran-2-yl]oxy-chromone

> <PUBCHEM_IUPAC_INCHI>
InChI=1S/C26H28O14/c27-11-3-1-10(2-4-11)16-7-14(29)19-13(28)5-12(6-17(19)39-16)38-26-24(35)22(33)21(32)18(40-26)9-37-25-23(34)20(31)15(30)8-36-25/h1-7,15,18,20-28,30-35H,8-9H2/t15-,18?,20?,21+,22-,23+,24?,25-,26+/m0/s1

> <PUBCHEM_IUPAC_INCHIKEY>
FKLICTGYYKTNMS-HGTGJZBWSA-N

> <PUBCHEM_XLOGP3_AA>
-1.2

> <PUBCHEM_EXACT_MASS>
564.14790556

> <PUBCHEM_MOLECULAR_FORMULA>
C26H28O14

> <PUBCHEM_MOLECULAR_WEIGHT>
564.5

> <PUBCHEM_OPENEYE_CAN_SMILES>
C1C(C(C(C(O1)OCC2C(C(C(C(O2)OC3=CC(=C4C(=C3)OC(=CC4=O)C5=CC=C(C=C5)O)O)O)O)O)O)O)O

> <PUBCHEM_OPENEYE_ISO_SMILES>
C1[C@@H](C([C@H]([C@@H](O1)OCC2[C@H]([C@@H](C([C@@H](O2)OC3=CC(=C4C(=C3)OC(=CC4=O)C5=CC=C(C=C5)O)O)O)O)O)O)O)O

> <PUBCHEM_CACTVS_TPSA>
225

> <PUBCHEM_MONOISOTOPIC_WEIGHT>
564.14790556

> <PUBCHEM_TOTAL_CHARGE>
0

> <PUBCHEM_HEAVY_ATOM_COUNT>
40

> <PUBCHEM_ATOM_DEF_STEREO_COUNT>
6

> <PUBCHEM_ATOM_UDEF_STEREO_COUNT>
3

> <PUBCHEM_BOND_DEF_STEREO_COUNT>
0

> <PUBCHEM_BOND_UDEF_STEREO_COUNT>
0

> <PUBCHEM_ISOTOPIC_ATOM_COUNT>
0

> <PUBCHEM_COMPONENT_COUNT>
1

> <PUBCHEM_CACTVS_TAUTO_COUNT>
-1

> <PUBCHEM_COORDINATE_TYPE>
1
5
255

> <PUBCHEM_BONDANNOTATIONS>
24  10  6
11  29  8
11  33  8
15  20  3
21  2  6
26  27  8
26  28  8
27  29  8
28  30  8
29  31  8
30  31  8
31  32  8
32  34  8
33  34  8
35  36  8
35  37  8
36  38  8
37  39  8
38  40  8
39  40  8
16  4  6
17  5  5
19  6  5
18  7  3
22  8  5
23  9  3

$$$$
