 
  -OEChem-10192104252D

 49 48  0     1  0  0  0  0  0999 V2000
    6.0010   -1.7500    0.0000 O   0  0  0  0  0  0  0  0  0  0  0  0
    7.7331   -0.7500    0.0000 O   0  0  0  0  0  0  0  0  0  0  0  0
    4.2690   -1.7500    0.0000 O   0  0  0  0  0  0  0  0  0  0  0  0
    7.7331    1.2500    0.0000 O   0  0  0  0  0  0  0  0  0  0  0  0
    2.5369   -0.7500    0.0000 O   0  0  0  0  0  0  0  0  0  0  0  0
    7.7331   -1.7500    0.0000 O   0  0  0  0  0  0  0  0  0  0  0  0
    8.5991    0.7500    0.0000 O   0  0  0  0  0  0  0  0  0  0  0  0
    6.8671    2.7500    0.0000 O   0  0  0  0  0  0  0  0  0  0  0  0
    6.0010   -0.7500    0.0000 C   0  0  3  0  0  0  0  0  0  0  0  0
    5.1350   -0.2500    0.0000 C   0  0  0  0  0  0  0  0  0  0  0  0
    6.8671   -0.2500    0.0000 C   0  0  3  0  0  0  0  0  0  0  0  0
    4.2690   -0.7500    0.0000 C   0  0  3  0  0  0  0  0  0  0  0  0
    6.8671    0.7500    0.0000 C   0  0  0  0  0  0  0  0  0  0  0  0
    3.4030   -0.2500    0.0000 C   0  0  0  0  0  0  0  0  0  0  0  0
    6.8671   -2.2500    0.0000 C   0  0  0  0  0  0  0  0  0  0  0  0
    8.5991   -0.2500    0.0000 C   0  0  0  0  0  0  0  0  0  0  0  0
    6.8671   -3.2500    0.0000 C   0  0  0  0  0  0  0  0  0  0  0  0
    9.4651   -0.7500    0.0000 C   0  0  0  0  0  0  0  0  0  0  0  0
    7.7331    2.2500    0.0000 C   0  0  0  0  0  0  0  0  0  0  0  0
    8.5991    2.7500    0.0000 C   0  0  0  0  0  0  0  0  0  0  0  0
    6.0010   -3.7500    0.0000 C   0  0  0  0  0  0  0  0  0  0  0  0
   10.3312   -0.2500    0.0000 C   0  0  0  0  0  0  0  0  0  0  0  0
    8.5991    3.7500    0.0000 C   0  0  0  0  0  0  0  0  0  0  0  0
    6.5380   -1.0600    0.0000 H   0  0  0  0  0  0  0  0  0  0  0  0
    5.5335    0.2249    0.0000 H   0  0  0  0  0  0  0  0  0  0  0  0
    4.7365    0.2249    0.0000 H   0  0  0  0  0  0  0  0  0  0  0  0
    7.4040    0.0600    0.0000 H   0  0  0  0  0  0  0  0  0  0  0  0
    4.8059   -1.0600    0.0000 H   0  0  0  0  0  0  0  0  0  0  0  0
    6.6550    1.3326    0.0000 H   0  0  0  0  0  0  0  0  0  0  0  0
    6.2565    0.6423    0.0000 H   0  0  0  0  0  0  0  0  0  0  0  0
    3.8015    0.2249    0.0000 H   0  0  0  0  0  0  0  0  0  0  0  0
    3.0044    0.2249    0.0000 H   0  0  0  0  0  0  0  0  0  0  0  0
    3.7320   -2.0600    0.0000 H   0  0  0  0  0  0  0  0  0  0  0  0
    7.0791   -3.8326    0.0000 H   0  0  0  0  0  0  0  0  0  0  0  0
    7.4776   -3.1423    0.0000 H   0  0  0  0  0  0  0  0  0  0  0  0
    9.0666   -1.2250    0.0000 H   0  0  0  0  0  0  0  0  0  0  0  0
    9.8637   -1.2250    0.0000 H   0  0  0  0  0  0  0  0  0  0  0  0
    2.0000   -0.4400    0.0000 H   0  0  0  0  0  0  0  0  0  0  0  0
    8.8112    2.1674    0.0000 H   0  0  0  0  0  0  0  0  0  0  0  0
    9.2097    2.8577    0.0000 H   0  0  0  0  0  0  0  0  0  0  0  0
    5.6910   -3.2131    0.0000 H   0  0  0  0  0  0  0  0  0  0  0  0
    5.4641   -4.0600    0.0000 H   0  0  0  0  0  0  0  0  0  0  0  0
    6.3110   -4.2869    0.0000 H   0  0  0  0  0  0  0  0  0  0  0  0
   10.6412   -0.7869    0.0000 H   0  0  0  0  0  0  0  0  0  0  0  0
   10.8681    0.0600    0.0000 H   0  0  0  0  0  0  0  0  0  0  0  0
   10.0212    0.2869    0.0000 H   0  0  0  0  0  0  0  0  0  0  0  0
    9.2191    3.7500    0.0000 H   0  0  0  0  0  0  0  0  0  0  0  0
    8.5991    4.3700    0.0000 H   0  0  0  0  0  0  0  0  0  0  0  0
    7.9791    3.7500    0.0000 H   0  0  0  0  0  0  0  0  0  0  0  0
  1  9  1  0  0  0  0
  1 15  1  0  0  0  0
  2 11  1  0  0  0  0
  2 16  1  0  0  0  0
  3 12  1  0  0  0  0
  3 33  1  0  0  0  0
  4 13  1  0  0  0  0
  4 19  1  0  0  0  0
  5 14  1  0  0  0  0
  5 38  1  0  0  0  0
  6 15  2  0  0  0  0
  7 16  2  0  0  0  0
  8 19  2  0  0  0  0
  9 10  1  0  0  0  0
  9 11  1  0  0  0  0
  9 24  1  0  0  0  0
 10 12  1  0  0  0  0
 10 25  1  0  0  0  0
 10 26  1  0  0  0  0
 11 13  1  0  0  0  0
 11 27  1  0  0  0  0
 12 14  1  0  0  0  0
 12 28  1  0  0  0  0
 13 29  1  0  0  0  0
 13 30  1  0  0  0  0
 14 31  1  0  0  0  0
 14 32  1  0  0  0  0
 15 17  1  0  0  0  0
 16 18  1  0  0  0  0
 17 21  1  0  0  0  0
 17 34  1  0  0  0  0
 17 35  1  0  0  0  0
 18 22  1  0  0  0  0
 18 36  1  0  0  0  0
 18 37  1  0  0  0  0
 19 20  1  0  0  0  0
 20 23  1  0  0  0  0
 20 39  1  0  0  0  0
 20 40  1  0  0  0  0
 21 41  1  0  0  0  0
 21 42  1  0  0  0  0
 21 43  1  0  0  0  0
 22 44  1  0  0  0  0
 22 45  1  0  0  0  0
 22 46  1  0  0  0  0
 23 47  1  0  0  0  0
 23 48  1  0  0  0  0
 23 49  1  0  0  0  0
M  END
> <PUBCHEM_COMPOUND_CID>
123561517

> <PUBCHEM_COMPOUND_CANONICALIZED>
1

> <PUBCHEM_CACTVS_COMPLEXITY>
382

> <PUBCHEM_CACTVS_HBOND_ACCEPTOR>
8

> <PUBCHEM_CACTVS_HBOND_DONOR>
2

> <PUBCHEM_CACTVS_ROTATABLE_BOND>
14

> <PUBCHEM_CACTVS_SUBSKEYS>
AAADceBwPAAAAAAAAAAAAAAAAAAAAAAAAAAAAAAAAAAAAAAAAAAAGgAACAAACBSggAICCAAABgAIAACQCAAAAAAAAAAAAAEAAAABEAIAAAACQAAFAAADAAHAYAwAAAAAAAAAAAAAAAAAAAAAAAAAAAAAAA==

> <PUBCHEM_IUPAC_OPENEYE_NAME>
[5,6-dihydroxy-2,3-di(propanoyloxy)hexyl] propanoate

> <PUBCHEM_IUPAC_CAS_NAME>
propanoic acid [5,6-dihydroxy-2,3-bis(1-oxopropoxy)hexyl] ester

> <PUBCHEM_IUPAC_NAME_MARKUP>
[5,6-dihydroxy-2,3-di(propanoyloxy)hexyl] propanoate

> <PUBCHEM_IUPAC_NAME>
[5,6-dihydroxy-2,3-di(propanoyloxy)hexyl] propanoate

> <PUBCHEM_IUPAC_SYSTEMATIC_NAME>
[5,6-bis(oxidanyl)-2,3-di(propanoyloxy)hexyl] propanoate

> <PUBCHEM_IUPAC_TRADITIONAL_NAME>
propionic acid (5,6-dihydroxy-2,3-dipropionyloxy-hexyl) ester

> <PUBCHEM_IUPAC_INCHI>
InChI=1S/C15H26O8/c1-4-13(18)21-9-12(23-15(20)6-3)11(7-10(17)8-16)22-14(19)5-2/h10-12,16-17H,4-9H2,1-3H3

> <PUBCHEM_IUPAC_INCHIKEY>
UQKGHBLLBLTASD-UHFFFAOYSA-N

> <PUBCHEM_XLOGP3_AA>
0.5

> <PUBCHEM_EXACT_MASS>
334.16276778

> <PUBCHEM_MOLECULAR_FORMULA>
C15H26O8

> <PUBCHEM_MOLECULAR_WEIGHT>
334.36

> <PUBCHEM_OPENEYE_CAN_SMILES>
CCC(=O)OCC(C(CC(CO)O)OC(=O)CC)OC(=O)CC

> <PUBCHEM_OPENEYE_ISO_SMILES>
CCC(=O)OCC(C(CC(CO)O)OC(=O)CC)OC(=O)CC

> <PUBCHEM_CACTVS_TPSA>
119

> <PUBCHEM_MONOISOTOPIC_WEIGHT>
334.16276778

> <PUBCHEM_TOTAL_CHARGE>
0

> <PUBCHEM_HEAVY_ATOM_COUNT>
23

> <PUBCHEM_ATOM_DEF_STEREO_COUNT>
0

> <PUBCHEM_ATOM_UDEF_STEREO_COUNT>
3

> <PUBCHEM_BOND_DEF_STEREO_COUNT>
0

> <PUBCHEM_BOND_UDEF_STEREO_COUNT>
0

> <PUBCHEM_ISOTOPIC_ATOM_COUNT>
0

> <PUBCHEM_COMPONENT_COUNT>
1

> <PUBCHEM_CACTVS_TAUTO_COUNT>
-1

> <PUBCHEM_COORDINATE_TYPE>
1
5
255

> <PUBCHEM_BONDANNOTATIONS>
11  13  3
12  3  3
9  10  3

$$$$
