 
  -OEChem-10192104092D

 84 88  0     1  0  0  0  0  0999 V2000
    8.5991    1.0950    0.0000 O   0  0  0  0  0  0  0  0  0  0  0  0
    6.8671    2.0950    0.0000 O   0  0  0  0  0  0  0  0  0  0  0  0
    5.1350    2.0950    0.0000 O   0  0  0  0  0  0  0  0  0  0  0  0
    6.8671   -0.9050    0.0000 O   0  0  0  0  0  0  0  0  0  0  0  0
    8.5991   -1.9050    0.0000 O   0  0  0  0  0  0  0  0  0  0  0  0
   10.3312   -0.9050    0.0000 O   0  0  0  0  0  0  0  0  0  0  0  0
   10.3312    1.0950    0.0000 O   0  0  0  0  0  0  0  0  0  0  0  0
    6.8671    4.0950    0.0000 O   0  0  0  0  0  0  0  0  0  0  0  0
    5.1350    5.0950    0.0000 O   0  0  0  0  0  0  0  0  0  0  0  0
    3.4030    4.0950    0.0000 O   0  0  0  0  0  0  0  0  0  0  0  0
    2.5369    2.5950    0.0000 O   0  0  0  0  0  0  0  0  0  0  0  0
    6.0010    0.5950    0.0000 O   0  0  0  0  0  0  0  0  0  0  0  0
    6.8671   -1.9050    0.0000 O   0  0  0  0  0  0  0  0  0  0  0  0
   11.1972    0.5950    0.0000 O   0  0  0  0  0  0  0  0  0  0  0  0
    7.7331   -0.4050    0.0000 C   0  0  2  0  0  0  0  0  0  0  0  0
    7.7331    0.5950    0.0000 C   0  0  1  0  0  0  0  0  0  0  0  0
    8.5991   -0.9050    0.0000 C   0  0  1  0  0  0  0  0  0  0  0  0
    9.4651   -0.4050    0.0000 C   0  0  1  0  0  0  0  0  0  0  0  0
    9.4651    0.5950    0.0000 C   0  0  2  0  0  0  0  0  0  0  0  0
    6.8671    1.0950    0.0000 C   0  0  0  0  0  0  0  0  0  0  0  0
    6.0010    2.5950    0.0000 C   0  0  1  0  0  0  0  0  0  0  0  0
    6.0010    3.5950    0.0000 C   0  0  2  0  0  0  0  0  0  0  0  0
    5.1350    4.0950    0.0000 C   0  0  2  0  0  0  0  0  0  0  0  0
    4.2690    3.5950    0.0000 C   0  0  1  0  0  0  0  0  0  0  0  0
    4.2690    2.5950    0.0000 C   0  0  1  0  0  0  0  0  0  0  0  0
    3.4030    2.0950    0.0000 C   0  0  0  0  0  0  0  0  0  0  0  0
    6.0010   -0.4050    0.0000 C   0  0  0  0  0  0  0  0  0  0  0  0
    7.7331   -2.4050    0.0000 C   0  0  0  0  0  0  0  0  0  0  0  0
   11.1972   -0.4050    0.0000 C   0  0  0  0  0  0  0  0  0  0  0  0
   10.3312    2.0950    0.0000 C   0  0  0  0  0  0  0  0  0  0  0  0
    5.1350   -0.9050    0.0000 C   0  0  0  0  0  0  0  0  0  0  0  0
    7.7331   -3.4050    0.0000 C   0  0  0  0  0  0  0  0  0  0  0  0
   12.0632   -0.9050    0.0000 C   0  0  0  0  0  0  0  0  0  0  0  0
    5.1350   -1.9050    0.0000 C   0  0  0  0  0  0  0  0  0  0  0  0
    4.2690   -0.4050    0.0000 C   0  0  0  0  0  0  0  0  0  0  0  0
    8.5991   -3.9050    0.0000 C   0  0  0  0  0  0  0  0  0  0  0  0
    6.8671   -3.9050    0.0000 C   0  0  0  0  0  0  0  0  0  0  0  0
   12.9292   -0.4050    0.0000 C   0  0  0  0  0  0  0  0  0  0  0  0
   12.0632   -1.9050    0.0000 C   0  0  0  0  0  0  0  0  0  0  0  0
    4.2690   -2.4050    0.0000 C   0  0  0  0  0  0  0  0  0  0  0  0
    3.4030   -0.9050    0.0000 C   0  0  0  0  0  0  0  0  0  0  0  0
    8.5991   -4.9050    0.0000 C   0  0  0  0  0  0  0  0  0  0  0  0
    6.8671   -4.9050    0.0000 C   0  0  0  0  0  0  0  0  0  0  0  0
   13.7953   -0.9050    0.0000 C   0  0  0  0  0  0  0  0  0  0  0  0
   12.9292   -2.4050    0.0000 C   0  0  0  0  0  0  0  0  0  0  0  0
    3.4030   -1.9050    0.0000 C   0  0  0  0  0  0  0  0  0  0  0  0
    7.7331   -5.4050    0.0000 C   0  0  0  0  0  0  0  0  0  0  0  0
   13.7953   -1.9050    0.0000 C   0  0  0  0  0  0  0  0  0  0  0  0
    7.7331   -1.0250    0.0000 H   0  0  0  0  0  0  0  0  0  0  0  0
    7.7331    1.2150    0.0000 H   0  0  0  0  0  0  0  0  0  0  0  0
    9.1360   -1.2150    0.0000 H   0  0  0  0  0  0  0  0  0  0  0  0
    9.4651   -1.0250    0.0000 H   0  0  0  0  0  0  0  0  0  0  0  0
   10.0021    0.2850    0.0000 H   0  0  0  0  0  0  0  0  0  0  0  0
    6.2565    1.2027    0.0000 H   0  0  0  0  0  0  0  0  0  0  0  0
    6.6550    0.5124    0.0000 H   0  0  0  0  0  0  0  0  0  0  0  0
    6.5380    2.9050    0.0000 H   0  0  0  0  0  0  0  0  0  0  0  0
    6.0010    4.2150    0.0000 H   0  0  0  0  0  0  0  0  0  0  0  0
    4.5981    4.4050    0.0000 H   0  0  0  0  0  0  0  0  0  0  0  0
    3.7320    3.2850    0.0000 H   0  0  0  0  0  0  0  0  0  0  0  0
    4.2690    1.9750    0.0000 H   0  0  0  0  0  0  0  0  0  0  0  0
    3.0044    1.6200    0.0000 H   0  0  0  0  0  0  0  0  0  0  0  0
    3.8015    1.6200    0.0000 H   0  0  0  0  0  0  0  0  0  0  0  0
    6.8671    4.7150    0.0000 H   0  0  0  0  0  0  0  0  0  0  0  0
    4.5981    5.4050    0.0000 H   0  0  0  0  0  0  0  0  0  0  0  0
    3.4030    4.7150    0.0000 H   0  0  0  0  0  0  0  0  0  0  0  0
   10.9512    2.0950    0.0000 H   0  0  0  0  0  0  0  0  0  0  0  0
   10.3312    2.7150    0.0000 H   0  0  0  0  0  0  0  0  0  0  0  0
    9.7112    2.0950    0.0000 H   0  0  0  0  0  0  0  0  0  0  0  0
    2.0000    2.2850    0.0000 H   0  0  0  0  0  0  0  0  0  0  0  0
    5.6720   -2.2150    0.0000 H   0  0  0  0  0  0  0  0  0  0  0  0
    4.2690    0.2150    0.0000 H   0  0  0  0  0  0  0  0  0  0  0  0
    9.1360   -3.5950    0.0000 H   0  0  0  0  0  0  0  0  0  0  0  0
    6.3301   -3.5950    0.0000 H   0  0  0  0  0  0  0  0  0  0  0  0
   12.9292    0.2150    0.0000 H   0  0  0  0  0  0  0  0  0  0  0  0
   11.5263   -2.2150    0.0000 H   0  0  0  0  0  0  0  0  0  0  0  0
    4.2690   -3.0250    0.0000 H   0  0  0  0  0  0  0  0  0  0  0  0
    2.8660   -0.5950    0.0000 H   0  0  0  0  0  0  0  0  0  0  0  0
    9.1360   -5.2150    0.0000 H   0  0  0  0  0  0  0  0  0  0  0  0
    6.3301   -5.2150    0.0000 H   0  0  0  0  0  0  0  0  0  0  0  0
   14.3322   -0.5950    0.0000 H   0  0  0  0  0  0  0  0  0  0  0  0
   12.9292   -3.0250    0.0000 H   0  0  0  0  0  0  0  0  0  0  0  0
    2.8660   -2.2150    0.0000 H   0  0  0  0  0  0  0  0  0  0  0  0
    7.7331   -6.0250    0.0000 H   0  0  0  0  0  0  0  0  0  0  0  0
   14.3322   -2.2150    0.0000 H   0  0  0  0  0  0  0  0  0  0  0  0
  1 16  1  0  0  0  0
  1 19  1  0  0  0  0
  2 20  1  0  0  0  0
 21  2  1  1  0  0  0
  3 21  1  0  0  0  0
  3 25  1  0  0  0  0
 15  4  1  6  0  0  0
  4 27  1  0  0  0  0
 17  5  1  1  0  0  0
  5 28  1  0  0  0  0
 18  6  1  1  0  0  0
  6 29  1  0  0  0  0
 19  7  1  6  0  0  0
  7 30  1  0  0  0  0
 22  8  1  6  0  0  0
  8 63  1  0  0  0  0
 23  9  1  6  0  0  0
  9 64  1  0  0  0  0
 24 10  1  1  0  0  0
 10 65  1  0  0  0  0
 11 26  1  0  0  0  0
 11 69  1  0  0  0  0
 12 27  2  0  0  0  0
 13 28  2  0  0  0  0
 14 29  2  0  0  0  0
 15 16  1  0  0  0  0
 15 17  1  0  0  0  0
 15 49  1  0  0  0  0
 16 20  1  1  0  0  0
 16 50  1  0  0  0  0
 17 18  1  0  0  0  0
 17 51  1  0  0  0  0
 18 19  1  0  0  0  0
 18 52  1  0  0  0  0
 19 53  1  0  0  0  0
 20 54  1  0  0  0  0
 20 55  1  0  0  0  0
 21 22  1  0  0  0  0
 21 56  1  0  0  0  0
 22 23  1  0  0  0  0
 22 57  1  0  0  0  0
 23 24  1  0  0  0  0
 23 58  1  0  0  0  0
 24 25  1  0  0  0  0
 24 59  1  0  0  0  0
 25 26  1  6  0  0  0
 25 60  1  0  0  0  0
 26 61  1  0  0  0  0
 26 62  1  0  0  0  0
 27 31  1  0  0  0  0
 28 32  1  0  0  0  0
 29 33  1  0  0  0  0
 30 66  1  0  0  0  0
 30 67  1  0  0  0  0
 30 68  1  0  0  0  0
 31 34  2  0  0  0  0
 31 35  1  0  0  0  0
 32 36  2  0  0  0  0
 32 37  1  0  0  0  0
 33 38  2  0  0  0  0
 33 39  1  0  0  0  0
 34 40  1  0  0  0  0
 34 70  1  0  0  0  0
 35 41  2  0  0  0  0
 35 71  1  0  0  0  0
 36 42  1  0  0  0  0
 36 72  1  0  0  0  0
 37 43  2  0  0  0  0
 37 73  1  0  0  0  0
 38 44  1  0  0  0  0
 38 74  1  0  0  0  0
 39 45  2  0  0  0  0
 39 75  1  0  0  0  0
 40 46  2  0  0  0  0
 40 76  1  0  0  0  0
 41 46  1  0  0  0  0
 41 77  1  0  0  0  0
 42 47  2  0  0  0  0
 42 78  1  0  0  0  0
 43 47  1  0  0  0  0
 43 79  1  0  0  0  0
 44 48  2  0  0  0  0
 44 80  1  0  0  0  0
 45 48  1  0  0  0  0
 45 81  1  0  0  0  0
 46 82  1  0  0  0  0
 47 83  1  0  0  0  0
 48 84  1  0  0  0  0
M  END
> <PUBCHEM_COMPOUND_CID>
101090470

> <PUBCHEM_COMPOUND_CANONICALIZED>
1

> <PUBCHEM_CACTVS_COMPLEXITY>
1040

> <PUBCHEM_CACTVS_HBOND_ACCEPTOR>
14

> <PUBCHEM_CACTVS_HBOND_DONOR>
4

> <PUBCHEM_CACTVS_ROTATABLE_BOND>
14

> <PUBCHEM_CACTVS_SUBSKEYS>
AAADcfB8PAAAAAAAAAAAAAAAAAAAAAAAAAA0aMECAAAAAAABUAAAGgAACAAADBSwmAMyCIAABgCIAiDSCAACAAAkAAAIiAEACMgZNjKANRiicQAlwAEPqYfI6CyOAAAAAAAAAAAAAAAAAAAAAAAAAAAAAA==

> <PUBCHEM_IUPAC_OPENEYE_NAME>
[(2R,3R,4S,5S,6S)-4,5-dibenzoyloxy-6-methoxy-2-[[(2S,3S,4S,5S,6R)-3,4,5-trihydroxy-6-(hydroxymethyl)tetrahydropyran-2-yl]oxymethyl]tetrahydropyran-3-yl] benzoate

> <PUBCHEM_IUPAC_CAS_NAME>
benzoic acid [(2R,3R,4S,5S,6S)-4,5-dibenzoyloxy-6-methoxy-2-[[(2S,3S,4S,5S,6R)-3,4,5-trihydroxy-6-(hydroxymethyl)-2-oxanyl]oxymethyl]-3-oxanyl] ester

> <PUBCHEM_IUPAC_NAME_MARKUP>
[(2<I>R</I>,3<I>R</I>,4<I>S</I>,5<I>S</I>,6<I>S</I>)-4,5-dibenzoyloxy-6-methoxy-2-[[(2<I>S</I>,3<I>S</I>,4<I>S</I>,5<I>S</I>,6<I>R</I>)-3,4,5-trihydroxy-6-(hydroxymethyl)oxan-2-yl]oxymethyl]oxan-3-yl] benzoate

> <PUBCHEM_IUPAC_NAME>
[(2R,3R,4S,5S,6S)-4,5-dibenzoyloxy-6-methoxy-2-[[(2S,3S,4S,5S,6R)-3,4,5-trihydroxy-6-(hydroxymethyl)oxan-2-yl]oxymethyl]oxan-3-yl] benzoate

> <PUBCHEM_IUPAC_SYSTEMATIC_NAME>
[(2R,3R,4S,5S,6S)-2-[[(2S,3S,4S,5S,6R)-6-(hydroxymethyl)-3,4,5-tris(oxidanyl)oxan-2-yl]oxymethyl]-6-methoxy-4,5-bis(phenylcarbonyloxy)oxan-3-yl] benzoate

> <PUBCHEM_IUPAC_TRADITIONAL_NAME>
benzoic acid [(2R,3R,4S,5S,6S)-4,5-dibenzoyloxy-6-methoxy-2-[[(2S,3S,4S,5S,6R)-3,4,5-trihydroxy-6-methylol-tetrahydropyran-2-yl]oxymethyl]tetrahydropyran-3-yl] ester

> <PUBCHEM_IUPAC_INCHI>
InChI=1S/C34H36O14/c1-42-34-29(48-32(41)21-15-9-4-10-16-21)28(47-31(40)20-13-7-3-8-14-20)27(46-30(39)19-11-5-2-6-12-19)23(45-34)18-43-33-26(38)25(37)24(36)22(17-35)44-33/h2-16,22-29,33-38H,17-18H2,1H3/t22-,23-,24-,25+,26+,27-,28+,29+,33+,34+/m1/s1

> <PUBCHEM_IUPAC_INCHIKEY>
HHSPXMXTOCCHNY-KAEDGDHVSA-N

> <PUBCHEM_XLOGP3_AA>
2.5

> <PUBCHEM_EXACT_MASS>
668.21050582

> <PUBCHEM_MOLECULAR_FORMULA>
C34H36O14

> <PUBCHEM_MOLECULAR_WEIGHT>
668.6

> <PUBCHEM_OPENEYE_CAN_SMILES>
COC1C(C(C(C(O1)COC2C(C(C(C(O2)CO)O)O)O)OC(=O)C3=CC=CC=C3)OC(=O)C4=CC=CC=C4)OC(=O)C5=CC=CC=C5

> <PUBCHEM_OPENEYE_ISO_SMILES>
CO[C@@H]1[C@H]([C@H]([C@@H]([C@H](O1)CO[C@@H]2[C@H]([C@H]([C@@H]([C@H](O2)CO)O)O)O)OC(=O)C3=CC=CC=C3)OC(=O)C4=CC=CC=C4)OC(=O)C5=CC=CC=C5

> <PUBCHEM_CACTVS_TPSA>
197

> <PUBCHEM_MONOISOTOPIC_WEIGHT>
668.21050582

> <PUBCHEM_TOTAL_CHARGE>
0

> <PUBCHEM_HEAVY_ATOM_COUNT>
48

> <PUBCHEM_ATOM_DEF_STEREO_COUNT>
10

> <PUBCHEM_ATOM_UDEF_STEREO_COUNT>
0

> <PUBCHEM_BOND_DEF_STEREO_COUNT>
0

> <PUBCHEM_BOND_UDEF_STEREO_COUNT>
0

> <PUBCHEM_ISOTOPIC_ATOM_COUNT>
0

> <PUBCHEM_COMPONENT_COUNT>
1

> <PUBCHEM_CACTVS_TAUTO_COUNT>
-1

> <PUBCHEM_COORDINATE_TYPE>
1
5
255

> <PUBCHEM_BONDANNOTATIONS>
24  10  5
16  20  5
21  2  5
25  26  6
31  34  8
31  35  8
32  36  8
32  37  8
33  38  8
33  39  8
34  40  8
35  41  8
36  42  8
37  43  8
38  44  8
39  45  8
15  4  6
40  46  8
41  46  8
42  47  8
43  47  8
44  48  8
45  48  8
17  5  5
18  6  5
19  7  6
22  8  6
23  9  6

$$$$
