 
  -OEChem-10192104112D

 79 81  0     1  0  0  0  0  0999 V2000
    6.3301    0.2500    0.0000 O   0  0  0  0  0  0  0  0  0  0  0  0
    4.5981    0.2500    0.0000 O   0  0  0  0  0  0  0  0  0  0  0  0
    6.3301   -1.7500    0.0000 O   0  0  0  0  0  0  0  0  0  0  0  0
    5.4641   -3.2500    0.0000 O   0  0  0  0  0  0  0  0  0  0  0  0
    4.5981   -2.7500    0.0000 O   0  0  0  0  0  0  0  0  0  0  0  0
    2.8660   -1.7500    0.0000 O   0  0  0  0  0  0  0  0  0  0  0  0
    8.0622   -2.7500    0.0000 O   0  0  0  0  0  0  0  0  0  0  0  0
    8.0622   -4.7500    0.0000 O   0  0  0  0  0  0  0  0  0  0  0  0
    2.0000    4.7500    0.0000 O   0  0  0  0  0  0  0  0  0  0  0  0
    6.3301   -5.7500    0.0000 O   0  0  0  0  0  0  0  0  0  0  0  0
    5.4641    5.7500    0.0000 O   0  0  0  0  0  0  0  0  0  0  0  0
    2.8660    1.2500    0.0000 O   0  0  0  0  0  0  0  0  0  0  0  0
    4.5981   -5.7500    0.0000 O   0  0  0  0  0  0  0  0  0  0  0  0
    3.7320   -4.2500    0.0000 O   0  0  0  0  0  0  0  0  0  0  0  0
    3.7320    2.7500    0.0000 C   0  0  0  0  0  0  0  0  0  0  0  0
    4.5981    3.2500    0.0000 C   0  0  1  0  0  0  0  0  0  0  0  0
    5.4641    2.7500    0.0000 C   0  0  0  0  0  0  0  0  0  0  0  0
    2.8660    3.2500    0.0000 C   0  0  0  0  0  0  0  0  0  0  0  0
    5.4641   -1.2500    0.0000 C   0  0  1  0  0  0  0  0  0  0  0  0
    4.5981    4.2500    0.0000 C   0  0  0  0  0  0  0  0  0  0  0  0
    5.4641    1.7500    0.0000 C   0  0  0  0  0  0  0  0  0  0  0  0
    5.4641   -0.2500    0.0000 C   0  0  2  0  0  0  0  0  0  0  0  0
    4.5981   -1.7500    0.0000 C   0  0  2  0  0  0  0  0  0  0  0  0
    3.7320   -1.2500    0.0000 C   0  0  1  0  0  0  0  0  0  0  0  0
    4.2320    1.8840    0.0000 C   0  0  0  0  0  0  0  0  0  0  0  0
    3.2320    1.8840    0.0000 C   0  0  0  0  0  0  0  0  0  0  0  0
    6.3301    1.2500    0.0000 C   0  0  1  0  0  0  0  0  0  0  0  0
    3.7320   -0.2500    0.0000 C   0  0  1  0  0  0  0  0  0  0  0  0
    6.3301   -2.7500    0.0000 C   0  0  2  0  0  0  0  0  0  0  0  0
    2.8660    4.2500    0.0000 C   0  0  0  0  0  0  0  0  0  0  0  0
    3.7320    4.7500    0.0000 C   0  0  0  0  0  0  0  0  0  0  0  0
    7.1962   -3.2500    0.0000 C   0  0  1  0  0  0  0  0  0  0  0  0
    7.1962   -4.2500    0.0000 C   0  0  2  0  0  0  0  0  0  0  0  0
    5.4641    4.7500    0.0000 C   0  0  0  0  0  0  0  0  0  0  0  0
    6.3301   -4.7500    0.0000 C   0  0  1  0  0  0  0  0  0  0  0  0
    5.4641   -4.2500    0.0000 C   0  0  1  0  0  0  0  0  0  0  0  0
    2.8660    0.2500    0.0000 C   0  0  0  0  0  0  0  0  0  0  0  0
    7.1962    1.7500    0.0000 C   0  0  0  0  0  0  0  0  0  0  0  0
    4.5981   -4.7500    0.0000 C   0  0  0  0  0  0  0  0  0  0  0  0
    4.5981    2.6300    0.0000 H   0  0  0  0  0  0  0  0  0  0  0  0
    6.0747    2.6423    0.0000 H   0  0  0  0  0  0  0  0  0  0  0  0
    5.6762    3.3326    0.0000 H   0  0  0  0  0  0  0  0  0  0  0  0
    5.4641   -1.8700    0.0000 H   0  0  0  0  0  0  0  0  0  0  0  0
    2.2554    3.3577    0.0000 H   0  0  0  0  0  0  0  0  0  0  0  0
    2.6540    2.6674    0.0000 H   0  0  0  0  0  0  0  0  0  0  0  0
    4.8535    1.8577    0.0000 H   0  0  0  0  0  0  0  0  0  0  0  0
    5.2520    1.1674    0.0000 H   0  0  0  0  0  0  0  0  0  0  0  0
    5.4641    0.3700    0.0000 H   0  0  0  0  0  0  0  0  0  0  0  0
    4.0611   -2.0600    0.0000 H   0  0  0  0  0  0  0  0  0  0  0  0
    3.1951   -0.9400    0.0000 H   0  0  0  0  0  0  0  0  0  0  0  0
    6.8671    0.9400    0.0000 H   0  0  0  0  0  0  0  0  0  0  0  0
    3.6951    1.5740    0.0000 H   0  0  0  0  0  0  0  0  0  0  0  0
    4.5420    1.3470    0.0000 H   0  0  0  0  0  0  0  0  0  0  0  0
    4.7690    2.1940    0.0000 H   0  0  0  0  0  0  0  0  0  0  0  0
    2.6951    2.1940    0.0000 H   0  0  0  0  0  0  0  0  0  0  0  0
    2.9220    1.3470    0.0000 H   0  0  0  0  0  0  0  0  0  0  0  0
    3.7690    1.5740    0.0000 H   0  0  0  0  0  0  0  0  0  0  0  0
    3.7320    0.3700    0.0000 H   0  0  0  0  0  0  0  0  0  0  0  0
    6.8671   -2.4400    0.0000 H   0  0  0  0  0  0  0  0  0  0  0  0
    3.7320    5.3700    0.0000 H   0  0  0  0  0  0  0  0  0  0  0  0
    7.7331   -3.5600    0.0000 H   0  0  0  0  0  0  0  0  0  0  0  0
    7.1962   -4.8700    0.0000 H   0  0  0  0  0  0  0  0  0  0  0  0
    5.7932   -5.0600    0.0000 H   0  0  0  0  0  0  0  0  0  0  0  0
    5.6762    4.1674    0.0000 H   0  0  0  0  0  0  0  0  0  0  0  0
    6.0747    4.8577    0.0000 H   0  0  0  0  0  0  0  0  0  0  0  0
    4.9272   -3.9400    0.0000 H   0  0  0  0  0  0  0  0  0  0  0  0
    2.2554    0.3577    0.0000 H   0  0  0  0  0  0  0  0  0  0  0  0
    2.6540   -0.3326    0.0000 H   0  0  0  0  0  0  0  0  0  0  0  0
    7.5062    1.2131    0.0000 H   0  0  0  0  0  0  0  0  0  0  0  0
    7.7331    2.0600    0.0000 H   0  0  0  0  0  0  0  0  0  0  0  0
    6.8862    2.2869    0.0000 H   0  0  0  0  0  0  0  0  0  0  0  0
    4.0611   -3.0600    0.0000 H   0  0  0  0  0  0  0  0  0  0  0  0
    2.3291   -1.4400    0.0000 H   0  0  0  0  0  0  0  0  0  0  0  0
    8.5991   -3.0600    0.0000 H   0  0  0  0  0  0  0  0  0  0  0  0
    8.5991   -4.4400    0.0000 H   0  0  0  0  0  0  0  0  0  0  0  0
    6.8671   -6.0600    0.0000 H   0  0  0  0  0  0  0  0  0  0  0  0
    6.0010    6.0600    0.0000 H   0  0  0  0  0  0  0  0  0  0  0  0
    2.3291    1.5600    0.0000 H   0  0  0  0  0  0  0  0  0  0  0  0
    4.0611   -6.0600    0.0000 H   0  0  0  0  0  0  0  0  0  0  0  0
 22  1  1  1  0  0  0
 27  1  1  1  0  0  0
  2 22  1  0  0  0  0
  2 28  1  0  0  0  0
 19  3  1  6  0  0  0
 29  3  1  1  0  0  0
  4 29  1  0  0  0  0
  4 36  1  0  0  0  0
 23  5  1  1  0  0  0
  5 72  1  0  0  0  0
 24  6  1  6  0  0  0
  6 73  1  0  0  0  0
 32  7  1  6  0  0  0
  7 74  1  0  0  0  0
 33  8  1  1  0  0  0
  8 75  1  0  0  0  0
  9 30  2  0  0  0  0
 35 10  1  6  0  0  0
 10 76  1  0  0  0  0
 11 34  1  0  0  0  0
 11 77  1  0  0  0  0
 12 37  1  0  0  0  0
 12 78  1  0  0  0  0
 13 39  1  0  0  0  0
 13 79  1  0  0  0  0
 14 39  2  0  0  0  0
 15 16  1  0  0  0  0
 15 18  1  0  0  0  0
 15 25  1  0  0  0  0
 15 26  1  0  0  0  0
 16 17  1  6  0  0  0
 16 20  1  0  0  0  0
 16 40  1  0  0  0  0
 17 21  1  0  0  0  0
 17 41  1  0  0  0  0
 17 42  1  0  0  0  0
 18 30  1  0  0  0  0
 18 44  1  0  0  0  0
 18 45  1  0  0  0  0
 19 22  1  0  0  0  0
 19 23  1  0  0  0  0
 19 43  1  0  0  0  0
 20 31  2  0  0  0  0
 20 34  1  0  0  0  0
 21 27  1  0  0  0  0
 21 46  1  0  0  0  0
 21 47  1  0  0  0  0
 22 48  1  0  0  0  0
 23 24  1  0  0  0  0
 23 49  1  0  0  0  0
 24 28  1  0  0  0  0
 24 50  1  0  0  0  0
 25 52  1  0  0  0  0
 25 53  1  0  0  0  0
 25 54  1  0  0  0  0
 26 55  1  0  0  0  0
 26 56  1  0  0  0  0
 26 57  1  0  0  0  0
 27 38  1  0  0  0  0
 27 51  1  0  0  0  0
 28 37  1  1  0  0  0
 28 58  1  0  0  0  0
 29 32  1  0  0  0  0
 29 59  1  0  0  0  0
 30 31  1  0  0  0  0
 31 60  1  0  0  0  0
 32 33  1  0  0  0  0
 32 61  1  0  0  0  0
 33 35  1  0  0  0  0
 33 62  1  0  0  0  0
 34 64  1  0  0  0  0
 34 65  1  0  0  0  0
 35 36  1  0  0  0  0
 35 63  1  0  0  0  0
 36 39  1  1  0  0  0
 36 66  1  0  0  0  0
 37 67  1  0  0  0  0
 37 68  1  0  0  0  0
 38 69  1  0  0  0  0
 38 70  1  0  0  0  0
 38 71  1  0  0  0  0
M  END
> <PUBCHEM_COMPOUND_CID>
23251878

> <PUBCHEM_COMPOUND_CANONICALIZED>
1

> <PUBCHEM_CACTVS_COMPLEXITY>
892

> <PUBCHEM_CACTVS_HBOND_ACCEPTOR>
14

> <PUBCHEM_CACTVS_HBOND_DONOR>
8

> <PUBCHEM_CACTVS_ROTATABLE_BOND>
10

> <PUBCHEM_CACTVS_SUBSKEYS>
AAADcfB4PAAAAAAAAAAAAAAAAAAAAAAAAAAkSIAAAAAAAAAAAAAAGgAACAAADxSwgAMCCAAABgCIAqDSCAIAAAAgAAAACAFAAEgRFBYAAQQiUAAFoAAPEQPK7PzPgAAAAAAAAAAAAAAAAAAAAAAAAAAAAA==

> <PUBCHEM_IUPAC_OPENEYE_NAME>
(2S,3S,4S,5R,6R)-6-[(2R,3R,4S,5S,6R)-4,5-dihydroxy-6-(hydroxymethyl)-2-[(1R)-3-[(1R)-2-(hydroxymethyl)-6,6-dimethyl-4-oxo-cyclohex-2-en-1-yl]-1-methyl-propoxy]tetrahydropyran-3-yl]oxy-3,4,5-trihydroxy-tetrahydropyran-2-carboxylic acid

> <PUBCHEM_IUPAC_CAS_NAME>
(2S,3S,4S,5R,6R)-6-[[(2R,3R,4S,5S,6R)-4,5-dihydroxy-6-(hydroxymethyl)-2-[(2R)-4-[(1R)-2-(hydroxymethyl)-6,6-dimethyl-4-oxo-1-cyclohex-2-enyl]butan-2-yl]oxy-3-oxanyl]oxy]-3,4,5-trihydroxy-2-oxanecarboxylic acid

> <PUBCHEM_IUPAC_NAME_MARKUP>
(2<I>S</I>,3<I>S</I>,4<I>S</I>,5<I>R</I>,6<I>R</I>)-6-[(2<I>R</I>,3<I>R</I>,4<I>S</I>,5<I>S</I>,6<I>R</I>)-4,5-dihydroxy-6-(hydroxymethyl)-2-[(2<I>R</I>)-4-[(1<I>R</I>)-2-(hydroxymethyl)-6,6-dimethyl-4-oxocyclohex-2-en-1-yl]butan-2-yl]oxyoxan-3-yl]oxy-3,4,5-trihydroxyoxane-2-carboxylic acid

> <PUBCHEM_IUPAC_NAME>
(2S,3S,4S,5R,6R)-6-[(2R,3R,4S,5S,6R)-4,5-dihydroxy-6-(hydroxymethyl)-2-[(2R)-4-[(1R)-2-(hydroxymethyl)-6,6-dimethyl-4-oxocyclohex-2-en-1-yl]butan-2-yl]oxyoxan-3-yl]oxy-3,4,5-trihydroxyoxane-2-carboxylic acid

> <PUBCHEM_IUPAC_SYSTEMATIC_NAME>
(2S,3S,4S,5R,6R)-6-[(2R,3R,4S,5S,6R)-6-(hydroxymethyl)-2-[(2R)-4-[(1R)-2-(hydroxymethyl)-6,6-dimethyl-4-oxidanylidene-cyclohex-2-en-1-yl]butan-2-yl]oxy-4,5-bis(oxidanyl)oxan-3-yl]oxy-3,4,5-tris(oxidanyl)oxane-2-carboxylic acid

> <PUBCHEM_IUPAC_TRADITIONAL_NAME>
(2S,3S,4S,5R,6R)-6-[(2R,3R,4S,5S,6R)-4,5-dihydroxy-2-[(1R)-3-[(1R)-4-keto-6,6-dimethyl-2-methylol-cyclohex-2-en-1-yl]-1-methyl-propoxy]-6-methylol-tetrahydropyran-3-yl]oxy-3,4,5-trihydroxy-tetrahydropyran-2-carboxylic acid

> <PUBCHEM_IUPAC_INCHI>
InChI=1S/C25H40O14/c1-10(4-5-13-11(8-26)6-12(28)7-25(13,2)3)36-24-21(17(31)15(29)14(9-27)37-24)39-23-19(33)16(30)18(32)20(38-23)22(34)35/h6,10,13-21,23-24,26-27,29-33H,4-5,7-9H2,1-3H3,(H,34,35)/t10-,13+,14-,15-,16+,17+,18+,19-,20+,21-,23+,24-/m1/s1

> <PUBCHEM_IUPAC_INCHIKEY>
XZEPVFVLDOFLSB-LTHPJNKYSA-N

> <PUBCHEM_XLOGP3_AA>
-2.3

> <PUBCHEM_EXACT_MASS>
564.24180595

> <PUBCHEM_MOLECULAR_FORMULA>
C25H40O14

> <PUBCHEM_MOLECULAR_WEIGHT>
564.6

> <PUBCHEM_OPENEYE_CAN_SMILES>
CC(CCC1C(=CC(=O)CC1(C)C)CO)OC2C(C(C(C(O2)CO)O)O)OC3C(C(C(C(O3)C(=O)O)O)O)O

> <PUBCHEM_OPENEYE_ISO_SMILES>
C[C@H](CC[C@H]1C(=CC(=O)CC1(C)C)CO)O[C@H]2[C@@H]([C@H]([C@@H]([C@H](O2)CO)O)O)O[C@H]3[C@@H]([C@H]([C@@H]([C@H](O3)C(=O)O)O)O)O

> <PUBCHEM_CACTVS_TPSA>
233

> <PUBCHEM_MONOISOTOPIC_WEIGHT>
564.24180595

> <PUBCHEM_TOTAL_CHARGE>
0

> <PUBCHEM_HEAVY_ATOM_COUNT>
39

> <PUBCHEM_ATOM_DEF_STEREO_COUNT>
12

> <PUBCHEM_ATOM_UDEF_STEREO_COUNT>
0

> <PUBCHEM_BOND_DEF_STEREO_COUNT>
0

> <PUBCHEM_BOND_UDEF_STEREO_COUNT>
0

> <PUBCHEM_ISOTOPIC_ATOM_COUNT>
0

> <PUBCHEM_COMPONENT_COUNT>
1

> <PUBCHEM_CACTVS_TAUTO_COUNT>
-1

> <PUBCHEM_COORDINATE_TYPE>
1
5
255

> <PUBCHEM_BONDANNOTATIONS>
22  1  5
27  1  5
35  10  6
16  17  6
28  37  5
19  3  6
29  3  5
36  39  5
23  5  5
24  6  6
32  7  6
33  8  5

$$$$
