 
  -OEChem-10192103362D

105109  0     1  0  0  0  0  0999 V2000
    8.5991   -0.5000    0.0000 O   0  0  0  0  0  0  0  0  0  0  0  0
    9.4651   -2.0000    0.0000 O   0  0  0  0  0  0  0  0  0  0  0  0
   11.1972    1.0000    0.0000 O   0  0  0  0  0  0  0  0  0  0  0  0
    9.4651    2.0000    0.0000 O   0  0  0  0  0  0  0  0  0  0  0  0
    6.8671   -2.5000    0.0000 O   0  0  0  0  0  0  0  0  0  0  0  0
    6.0010   -4.0000    0.0000 O   0  0  0  0  0  0  0  0  0  0  0  0
   12.0632   -0.5000    0.0000 O   0  0  0  0  0  0  0  0  0  0  0  0
   11.1972   -1.0000    0.0000 O   0  0  0  0  0  0  0  0  0  0  0  0
    7.7331    2.0000    0.0000 O   0  0  0  0  0  0  0  0  0  0  0  0
    9.4651   -4.0000    0.0000 O   0  0  0  0  0  0  0  0  0  0  0  0
    7.7331   -5.0000    0.0000 O   0  0  0  0  0  0  0  0  0  0  0  0
    4.2690   -2.0000    0.0000 O   0  0  0  0  0  0  0  0  0  0  0  0
   12.9292    2.0000    0.0000 O   0  0  0  0  0  0  0  0  0  0  0  0
    9.4651    4.0000    0.0000 O   0  0  0  0  0  0  0  0  0  0  0  0
   14.6613    1.0000    0.0000 O   0  0  0  0  0  0  0  0  0  0  0  0
    7.7331    5.0000    0.0000 O   0  0  0  0  0  0  0  0  0  0  0  0
   14.6613   -1.0000    0.0000 O   0  0  0  0  0  0  0  0  0  0  0  0
    6.0010    4.0000    0.0000 O   0  0  0  0  0  0  0  0  0  0  0  0
    4.2690   -5.0000    0.0000 O   0  0  0  0  0  0  0  0  0  0  0  0
    2.5369   -4.0000    0.0000 O   0  0  0  0  0  0  0  0  0  0  0  0
    6.0010   -2.0000    0.0000 O   0  0  0  0  0  0  0  0  0  0  0  0
   12.0632   -2.5000    0.0000 O   0  0  0  0  0  0  0  0  0  0  0  0
    2.5369   -1.0000    0.0000 O   0  0  0  0  0  0  0  0  0  0  0  0
   10.3312    0.5000    0.0000 C   0  0  2  0  0  0  0  0  0  0  0  0
    9.4651    1.0000    0.0000 C   0  0  2  0  0  0  0  0  0  0  0  0
   10.3312   -0.5000    0.0000 C   0  0  2  0  0  0  0  0  0  0  0  0
    9.4651   -1.0000    0.0000 C   0  0  1  0  0  0  0  0  0  0  0  0
    8.5991    0.5000    0.0000 C   0  0  2  0  0  0  0  0  0  0  0  0
    8.5991   -2.5000    0.0000 C   0  0  2  0  0  0  0  0  0  0  0  0
    8.5991   -3.5000    0.0000 C   0  0  2  0  0  0  0  0  0  0  0  0
    7.7331   -2.0000    0.0000 C   0  0  2  0  0  0  0  0  0  0  0  0
    7.7331   -4.0000    0.0000 C   0  0  2  0  0  0  0  0  0  0  0  0
    6.8671   -3.5000    0.0000 C   0  0  1  0  0  0  0  0  0  0  0  0
   12.0632    0.5000    0.0000 C   0  0  2  0  0  0  0  0  0  0  0  0
    8.5991    2.5000    0.0000 C   0  0  2  0  0  0  0  0  0  0  0  0
   12.9292    1.0000    0.0000 C   0  0  1  0  0  0  0  0  0  0  0  0
    8.5991    3.5000    0.0000 C   0  0  1  0  0  0  0  0  0  0  0  0
    7.7331    1.0000    0.0000 C   0  0  0  0  0  0  0  0  0  0  0  0
   13.7953    0.5000    0.0000 C   0  0  2  0  0  0  0  0  0  0  0  0
    5.1350   -3.5000    0.0000 C   0  0  2  0  0  0  0  0  0  0  0  0
    7.7331    4.0000    0.0000 C   0  0  1  0  0  0  0  0  0  0  0  0
   13.7953   -0.5000    0.0000 C   0  0  1  0  0  0  0  0  0  0  0  0
   12.9292   -1.0000    0.0000 C   0  0  1  0  0  0  0  0  0  0  0  0
    6.8671    3.5000    0.0000 C   0  0  2  0  0  0  0  0  0  0  0  0
    6.8671    2.5000    0.0000 C   0  0  2  0  0  0  0  0  0  0  0  0
    4.2690   -4.0000    0.0000 C   0  0  2  0  0  0  0  0  0  0  0  0
    7.7331   -1.0000    0.0000 C   0  0  0  0  0  0  0  0  0  0  0  0
    3.4030   -3.5000    0.0000 C   0  0  1  0  0  0  0  0  0  0  0  0
    5.1350   -2.5000    0.0000 C   0  0  3  0  0  0  0  0  0  0  0  0
    3.4030   -2.5000    0.0000 C   0  0  1  0  0  0  0  0  0  0  0  0
   12.9292   -2.0000    0.0000 C   0  0  0  0  0  0  0  0  0  0  0  0
    6.0010    2.0000    0.0000 C   0  0  0  0  0  0  0  0  0  0  0  0
    2.5369   -2.0000    0.0000 C   0  0  0  0  0  0  0  0  0  0  0  0
   10.8681    0.1900    0.0000 H   0  0  0  0  0  0  0  0  0  0  0  0
   10.0021    1.3100    0.0000 H   0  0  0  0  0  0  0  0  0  0  0  0
   10.8681   -0.1900    0.0000 H   0  0  0  0  0  0  0  0  0  0  0  0
   10.0021   -1.3100    0.0000 H   0  0  0  0  0  0  0  0  0  0  0  0
    8.0622    0.1900    0.0000 H   0  0  0  0  0  0  0  0  0  0  0  0
    8.5991   -1.8800    0.0000 H   0  0  0  0  0  0  0  0  0  0  0  0
    9.1360   -3.1900    0.0000 H   0  0  0  0  0  0  0  0  0  0  0  0
    7.1962   -1.6900    0.0000 H   0  0  0  0  0  0  0  0  0  0  0  0
    8.2700   -4.3100    0.0000 H   0  0  0  0  0  0  0  0  0  0  0  0
    6.8671   -4.1200    0.0000 H   0  0  0  0  0  0  0  0  0  0  0  0
   11.5263    0.1900    0.0000 H   0  0  0  0  0  0  0  0  0  0  0  0
    8.5991    1.8800    0.0000 H   0  0  0  0  0  0  0  0  0  0  0  0
   13.4662    1.3100    0.0000 H   0  0  0  0  0  0  0  0  0  0  0  0
    8.5991    4.1200    0.0000 H   0  0  0  0  0  0  0  0  0  0  0  0
    8.0431    1.5369    0.0000 H   0  0  0  0  0  0  0  0  0  0  0  0
    7.1962    1.3100    0.0000 H   0  0  0  0  0  0  0  0  0  0  0  0
    7.4231    0.4631    0.0000 H   0  0  0  0  0  0  0  0  0  0  0  0
   13.7953    1.1200    0.0000 H   0  0  0  0  0  0  0  0  0  0  0  0
    5.1350   -4.1200    0.0000 H   0  0  0  0  0  0  0  0  0  0  0  0
    7.1962    4.3100    0.0000 H   0  0  0  0  0  0  0  0  0  0  0  0
   14.3322   -0.1900    0.0000 H   0  0  0  0  0  0  0  0  0  0  0  0
   12.3923   -1.3100    0.0000 H   0  0  0  0  0  0  0  0  0  0  0  0
    6.8671    4.1200    0.0000 H   0  0  0  0  0  0  0  0  0  0  0  0
    6.8671    1.8800    0.0000 H   0  0  0  0  0  0  0  0  0  0  0  0
    3.7320   -4.3100    0.0000 H   0  0  0  0  0  0  0  0  0  0  0  0
    8.3531   -1.0000    0.0000 H   0  0  0  0  0  0  0  0  0  0  0  0
    7.7331   -0.3800    0.0000 H   0  0  0  0  0  0  0  0  0  0  0  0
    7.1131   -1.0000    0.0000 H   0  0  0  0  0  0  0  0  0  0  0  0
   11.1972   -1.6200    0.0000 H   0  0  0  0  0  0  0  0  0  0  0  0
    3.4030   -4.1200    0.0000 H   0  0  0  0  0  0  0  0  0  0  0  0
    5.1350   -1.8800    0.0000 H   0  0  0  0  0  0  0  0  0  0  0  0
    3.4030   -1.8800    0.0000 H   0  0  0  0  0  0  0  0  0  0  0  0
   10.0021   -3.6900    0.0000 H   0  0  0  0  0  0  0  0  0  0  0  0
   13.1413   -2.5826    0.0000 H   0  0  0  0  0  0  0  0  0  0  0  0
   13.5398   -1.8923    0.0000 H   0  0  0  0  0  0  0  0  0  0  0  0
    8.2700   -5.3100    0.0000 H   0  0  0  0  0  0  0  0  0  0  0  0
    5.6910    2.5369    0.0000 H   0  0  0  0  0  0  0  0  0  0  0  0
    5.4641    1.6900    0.0000 H   0  0  0  0  0  0  0  0  0  0  0  0
    6.3110    1.4631    0.0000 H   0  0  0  0  0  0  0  0  0  0  0  0
   13.4662    2.3100    0.0000 H   0  0  0  0  0  0  0  0  0  0  0  0
    9.4651    4.6200    0.0000 H   0  0  0  0  0  0  0  0  0  0  0  0
    1.9264   -1.8923    0.0000 H   0  0  0  0  0  0  0  0  0  0  0  0
    2.3249   -2.5826    0.0000 H   0  0  0  0  0  0  0  0  0  0  0  0
   15.1982    0.6900    0.0000 H   0  0  0  0  0  0  0  0  0  0  0  0
    7.1962    5.3100    0.0000 H   0  0  0  0  0  0  0  0  0  0  0  0
   14.6613   -1.6200    0.0000 H   0  0  0  0  0  0  0  0  0  0  0  0
    5.4641    3.6900    0.0000 H   0  0  0  0  0  0  0  0  0  0  0  0
    3.7320   -5.3100    0.0000 H   0  0  0  0  0  0  0  0  0  0  0  0
    2.0000   -3.6900    0.0000 H   0  0  0  0  0  0  0  0  0  0  0  0
    6.0010   -1.3800    0.0000 H   0  0  0  0  0  0  0  0  0  0  0  0
   12.0632   -3.1200    0.0000 H   0  0  0  0  0  0  0  0  0  0  0  0
    2.0000   -0.6900    0.0000 H   0  0  0  0  0  0  0  0  0  0  0  0
  1 27  1  0  0  0  0
  1 28  1  0  0  0  0
 27  2  1  6  0  0  0
 29  2  1  6  0  0  0
 24  3  1  1  0  0  0
 34  3  1  1  0  0  0
 25  4  1  6  0  0  0
 35  4  1  6  0  0  0
  5 31  1  0  0  0  0
  5 33  1  0  0  0  0
 33  6  1  6  0  0  0
 40  6  1  6  0  0  0
  7 34  1  0  0  0  0
  7 43  1  0  0  0  0
 26  8  1  1  0  0  0
  8 82  1  0  0  0  0
  9 35  1  0  0  0  0
  9 45  1  0  0  0  0
 30 10  1  1  0  0  0
 10 86  1  0  0  0  0
 32 11  1  1  0  0  0
 11 89  1  0  0  0  0
 12 49  1  0  0  0  0
 12 50  1  0  0  0  0
 36 13  1  6  0  0  0
 13 93  1  0  0  0  0
 37 14  1  1  0  0  0
 14 94  1  0  0  0  0
 39 15  1  1  0  0  0
 15 97  1  0  0  0  0
 41 16  1  1  0  0  0
 16 98  1  0  0  0  0
 42 17  1  6  0  0  0
 17 99  1  0  0  0  0
 44 18  1  6  0  0  0
 18100  1  0  0  0  0
 46 19  1  1  0  0  0
 19101  1  0  0  0  0
 48 20  1  6  0  0  0
 20102  1  0  0  0  0
 21 49  1  0  0  0  0
 21103  1  0  0  0  0
 22 51  1  0  0  0  0
 22104  1  0  0  0  0
 23 53  1  0  0  0  0
 23105  1  0  0  0  0
 24 25  1  0  0  0  0
 24 26  1  0  0  0  0
 24 54  1  0  0  0  0
 25 28  1  0  0  0  0
 25 55  1  0  0  0  0
 26 27  1  0  0  0  0
 26 56  1  0  0  0  0
 27 57  1  0  0  0  0
 28 38  1  1  0  0  0
 28 58  1  0  0  0  0
 29 30  1  0  0  0  0
 29 31  1  0  0  0  0
 29 59  1  0  0  0  0
 30 32  1  0  0  0  0
 30 60  1  0  0  0  0
 31 47  1  1  0  0  0
 31 61  1  0  0  0  0
 32 33  1  0  0  0  0
 32 62  1  0  0  0  0
 33 63  1  0  0  0  0
 34 36  1  0  0  0  0
 34 64  1  0  0  0  0
 35 37  1  0  0  0  0
 35 65  1  0  0  0  0
 36 39  1  0  0  0  0
 36 66  1  0  0  0  0
 37 41  1  0  0  0  0
 37 67  1  0  0  0  0
 38 68  1  0  0  0  0
 38 69  1  0  0  0  0
 38 70  1  0  0  0  0
 39 42  1  0  0  0  0
 39 71  1  0  0  0  0
 40 46  1  0  0  0  0
 40 49  1  0  0  0  0
 40 72  1  0  0  0  0
 41 44  1  0  0  0  0
 41 73  1  0  0  0  0
 42 43  1  0  0  0  0
 42 74  1  0  0  0  0
 43 51  1  1  0  0  0
 43 75  1  0  0  0  0
 44 45  1  0  0  0  0
 44 76  1  0  0  0  0
 45 52  1  1  0  0  0
 45 77  1  0  0  0  0
 46 48  1  0  0  0  0
 46 78  1  0  0  0  0
 47 79  1  0  0  0  0
 47 80  1  0  0  0  0
 47 81  1  0  0  0  0
 48 50  1  0  0  0  0
 48 83  1  0  0  0  0
 49 84  1  0  0  0  0
 50 53  1  1  0  0  0
 50 85  1  0  0  0  0
 51 87  1  0  0  0  0
 51 88  1  0  0  0  0
 52 90  1  0  0  0  0
 52 91  1  0  0  0  0
 52 92  1  0  0  0  0
 53 95  1  0  0  0  0
 53 96  1  0  0  0  0
M  END
> <PUBCHEM_COMPOUND_CID>
91845454

> <PUBCHEM_COMPOUND_CANONICALIZED>
1

> <PUBCHEM_CACTVS_COMPLEXITY>
1160

> <PUBCHEM_CACTVS_HBOND_ACCEPTOR>
23

> <PUBCHEM_CACTVS_HBOND_DONOR>
14

> <PUBCHEM_CACTVS_ROTATABLE_BOND>
10

> <PUBCHEM_CACTVS_SUBSKEYS>
AAADcfB4PgAAAAAAAAAAAAAAAAAAAAAAAAAkSJEiQAAAAAAAAAAAGgAACAAACBSwgAMCCAAABgAAAAAAAAAAAAAAAAAAAAAAAAAREAIAAAAiQAAFAAAHAAHAYAwAAAAAAAAAAAAAAAAAAAAAAAAAAAAAAA==

> <PUBCHEM_IUPAC_OPENEYE_NAME>
(2S,3R,4R,5R,6S)-2-[(2S,3S,4S,5R,6S)-6-[(2S,3R,4S,5R,6S)-4,5-dihydroxy-2-methyl-6-[(3R,4S,5S,6R)-2,4,5-trihydroxy-6-(hydroxymethyl)tetrahydropyran-3-yl]oxy-tetrahydropyran-3-yl]oxy-5-hydroxy-2-methyl-4-[(2S,3R,4S,5S,6R)-3,4,5-trihydroxy-6-(hydroxymethyl)tetrahydropyran-2-yl]oxy-tetrahydropyran-3-yl]oxy-6-methyl-tetrahydropyran-3,4,5-triol

> <PUBCHEM_IUPAC_CAS_NAME>
(2S,3R,4R,5R,6S)-2-[[(2S,3S,4S,5R,6S)-6-[[(2S,3R,4S,5R,6S)-4,5-dihydroxy-2-methyl-6-[[(3R,4S,5S,6R)-2,4,5-trihydroxy-6-(hydroxymethyl)-3-oxanyl]oxy]-3-oxanyl]oxy]-5-hydroxy-2-methyl-4-[[(2S,3R,4S,5S,6R)-3,4,5-trihydroxy-6-(hydroxymethyl)-2-oxanyl]oxy]-3-oxanyl]oxy]-6-methyloxane-3,4,5-triol

> <PUBCHEM_IUPAC_NAME_MARKUP>
(2<I>S</I>,3<I>R</I>,4<I>R</I>,5<I>R</I>,6<I>S</I>)-2-[(2<I>S</I>,3<I>S</I>,4<I>S</I>,5<I>R</I>,6<I>S</I>)-6-[(2<I>S</I>,3<I>R</I>,4<I>S</I>,5<I>R</I>,6<I>S</I>)-4,5-dihydroxy-2-methyl-6-[(3<I>R</I>,4<I>S</I>,5<I>S</I>,6<I>R</I>)-2,4,5-trihydroxy-6-(hydroxymethyl)oxan-3-yl]oxyoxan-3-yl]oxy-5-hydroxy-2-methyl-4-[(2<I>S</I>,3<I>R</I>,4<I>S</I>,5<I>S</I>,6<I>R</I>)-3,4,5-trihydroxy-6-(hydroxymethyl)oxan-2-yl]oxyoxan-3-yl]oxy-6-methyloxane-3,4,5-triol

> <PUBCHEM_IUPAC_NAME>
(2S,3R,4R,5R,6S)-2-[(2S,3S,4S,5R,6S)-6-[(2S,3R,4S,5R,6S)-4,5-dihydroxy-2-methyl-6-[(3R,4S,5S,6R)-2,4,5-trihydroxy-6-(hydroxymethyl)oxan-3-yl]oxyoxan-3-yl]oxy-5-hydroxy-2-methyl-4-[(2S,3R,4S,5S,6R)-3,4,5-trihydroxy-6-(hydroxymethyl)oxan-2-yl]oxyoxan-3-yl]oxy-6-methyloxane-3,4,5-triol

> <PUBCHEM_IUPAC_SYSTEMATIC_NAME>
(2S,3R,4R,5R,6S)-2-[(2S,3S,4S,5R,6S)-4-[(2S,3R,4S,5S,6R)-6-(hydroxymethyl)-3,4,5-tris(oxidanyl)oxan-2-yl]oxy-6-[(2S,3R,4S,5R,6S)-6-[(3R,4S,5S,6R)-6-(hydroxymethyl)-2,4,5-tris(oxidanyl)oxan-3-yl]oxy-2-methyl-4,5-bis(oxidanyl)oxan-3-yl]oxy-2-methyl-5-oxidanyl-oxan-3-yl]oxy-6-methyl-oxane-3,4,5-triol

> <PUBCHEM_IUPAC_TRADITIONAL_NAME>
(2S,3R,4R,5R,6S)-2-[(2S,3S,4S,5R,6S)-6-[(2S,3R,4S,5R,6S)-4,5-dihydroxy-2-methyl-6-[(3R,4S,5S,6R)-2,4,5-trihydroxy-6-methylol-tetrahydropyran-3-yl]oxy-tetrahydropyran-3-yl]oxy-5-hydroxy-2-methyl-4-[(2S,3R,4S,5S,6R)-3,4,5-trihydroxy-6-methylol-tetrahydropyran-2-yl]oxy-tetrahydropyran-3-yl]oxy-6-methyl-tetrahydropyran-3,4,5-triol

> <PUBCHEM_IUPAC_INCHI>
InChI=1S/C30H52O23/c1-6-11(33)14(36)18(40)27(45-6)51-23-8(3)47-30(21(43)24(23)52-29-19(41)15(37)12(34)10(5-32)49-29)50-22-7(2)46-28(20(42)17(22)39)53-25-16(38)13(35)9(4-31)48-26(25)44/h6-44H,4-5H2,1-3H3/t6-,7-,8-,9+,10+,11-,12+,13+,14+,15-,16-,17-,18+,19+,20+,21+,22-,23-,24-,25+,26?,27-,28-,29-,30-/m0/s1

> <PUBCHEM_IUPAC_INCHIKEY>
DDHQIPAMHJGCOF-UKXBVFMDSA-N

> <PUBCHEM_XLOGP3_AA>
-7.5

> <PUBCHEM_EXACT_MASS>
780.28993790

> <PUBCHEM_MOLECULAR_FORMULA>
C30H52O23

> <PUBCHEM_MOLECULAR_WEIGHT>
780.7

> <PUBCHEM_OPENEYE_CAN_SMILES>
CC1C(C(C(C(O1)OC2C(OC(C(C2OC3C(C(C(C(O3)CO)O)O)O)O)OC4C(OC(C(C4O)O)OC5C(C(C(OC5O)CO)O)O)C)C)O)O)O

> <PUBCHEM_OPENEYE_ISO_SMILES>
C[C@H]1[C@@H]([C@H]([C@H]([C@@H](O1)O[C@H]2[C@@H](O[C@H]([C@@H]([C@@H]2O[C@H]3[C@@H]([C@H]([C@@H]([C@H](O3)CO)O)O)O)O)O[C@H]4[C@@H](O[C@H]([C@@H]([C@@H]4O)O)O[C@@H]5[C@H]([C@@H]([C@H](OC5O)CO)O)O)C)C)O)O)O

> <PUBCHEM_CACTVS_TPSA>
366

> <PUBCHEM_MONOISOTOPIC_WEIGHT>
780.28993790

> <PUBCHEM_TOTAL_CHARGE>
0

> <PUBCHEM_HEAVY_ATOM_COUNT>
53

> <PUBCHEM_ATOM_DEF_STEREO_COUNT>
24

> <PUBCHEM_ATOM_UDEF_STEREO_COUNT>
1

> <PUBCHEM_BOND_DEF_STEREO_COUNT>
0

> <PUBCHEM_BOND_UDEF_STEREO_COUNT>
0

> <PUBCHEM_ISOTOPIC_ATOM_COUNT>
0

> <PUBCHEM_COMPONENT_COUNT>
1

> <PUBCHEM_CACTVS_TAUTO_COUNT>
-1

> <PUBCHEM_COORDINATE_TYPE>
1
5
255

> <PUBCHEM_BONDANNOTATIONS>
30  10  5
32  11  5
36  13  6
37  14  5
39  15  5
41  16  5
42  17  6
44  18  6
46  19  5
27  2  6
29  2  6
48  20  6
49  21  3
28  38  5
24  3  5
34  3  5
31  47  5
25  4  6
35  4  6
43  51  5
45  52  5
50  53  5
33  6  6
40  6  6
26  8  5

$$$$
