 
  -OEChem-10192103532D

 39 38  0     0  0  0  0  0  0999 V2000
   10.6603   -0.7500    0.0000 O   0  0  0  0  0  0  0  0  0  0  0  0
    8.9282   -0.7500    0.0000 O   0  0  0  0  0  0  0  0  0  0  0  0
    7.1962   -0.7500    0.0000 O   0  0  0  0  0  0  0  0  0  0  0  0
    5.4641   -0.7500    0.0000 O   0  0  0  0  0  0  0  0  0  0  0  0
    3.7320   -0.7500    0.0000 O   0  0  0  0  0  0  0  0  0  0  0  0
   11.5263    0.7500    0.0000 C   0  0  0  0  0  0  0  0  0  0  0  0
    9.7942    0.7500    0.0000 C   0  0  0  0  0  0  0  0  0  0  0  0
    8.0622    0.7500    0.0000 C   0  0  0  0  0  0  0  0  0  0  0  0
   12.3923    0.2500    0.0000 C   0  0  0  0  0  0  0  0  0  0  0  0
   10.6603    0.2500    0.0000 C   0  0  0  0  0  0  0  0  0  0  0  0
    6.3301    0.7500    0.0000 C   0  0  0  0  0  0  0  0  0  0  0  0
    8.9282    0.2500    0.0000 C   0  0  0  0  0  0  0  0  0  0  0  0
    7.1962    0.2500    0.0000 C   0  0  0  0  0  0  0  0  0  0  0  0
    4.5981    0.7500    0.0000 C   0  0  0  0  0  0  0  0  0  0  0  0
    5.4641    0.2500    0.0000 C   0  0  0  0  0  0  0  0  0  0  0  0
    3.7320    0.2500    0.0000 C   0  0  0  0  0  0  0  0  0  0  0  0
   13.2583    0.7500    0.0000 C   0  0  0  0  0  0  0  0  0  0  0  0
    2.8660    0.7500    0.0000 C   0  0  0  0  0  0  0  0  0  0  0  0
    2.0000    0.2500    0.0000 C   0  0  0  0  0  0  0  0  0  0  0  0
   11.9248    1.2250    0.0000 H   0  0  0  0  0  0  0  0  0  0  0  0
   11.1278    1.2250    0.0000 H   0  0  0  0  0  0  0  0  0  0  0  0
   10.1928    1.2250    0.0000 H   0  0  0  0  0  0  0  0  0  0  0  0
    9.3957    1.2250    0.0000 H   0  0  0  0  0  0  0  0  0  0  0  0
    8.4607    1.2250    0.0000 H   0  0  0  0  0  0  0  0  0  0  0  0
    7.6636    1.2250    0.0000 H   0  0  0  0  0  0  0  0  0  0  0  0
   11.9938   -0.2249    0.0000 H   0  0  0  0  0  0  0  0  0  0  0  0
   12.7908   -0.2249    0.0000 H   0  0  0  0  0  0  0  0  0  0  0  0
    6.7287    1.2250    0.0000 H   0  0  0  0  0  0  0  0  0  0  0  0
    5.9316    1.2250    0.0000 H   0  0  0  0  0  0  0  0  0  0  0  0
    4.9966    1.2250    0.0000 H   0  0  0  0  0  0  0  0  0  0  0  0
    4.1996    1.2250    0.0000 H   0  0  0  0  0  0  0  0  0  0  0  0
   13.5683    0.2131    0.0000 H   0  0  0  0  0  0  0  0  0  0  0  0
   13.7953    1.0600    0.0000 H   0  0  0  0  0  0  0  0  0  0  0  0
   12.9483    1.2869    0.0000 H   0  0  0  0  0  0  0  0  0  0  0  0
    3.2646    1.2250    0.0000 H   0  0  0  0  0  0  0  0  0  0  0  0
    2.4675    1.2250    0.0000 H   0  0  0  0  0  0  0  0  0  0  0  0
    1.6900    0.7869    0.0000 H   0  0  0  0  0  0  0  0  0  0  0  0
    1.4631   -0.0600    0.0000 H   0  0  0  0  0  0  0  0  0  0  0  0
    2.3100   -0.2869    0.0000 H   0  0  0  0  0  0  0  0  0  0  0  0
  1 10  2  0  0  0  0
  2 12  2  0  0  0  0
  3 13  2  0  0  0  0
  4 15  2  0  0  0  0
  5 16  2  0  0  0  0
  6  9  1  0  0  0  0
  6 10  1  0  0  0  0
  6 20  1  0  0  0  0
  6 21  1  0  0  0  0
  7 10  1  0  0  0  0
  7 12  1  0  0  0  0
  7 22  1  0  0  0  0
  7 23  1  0  0  0  0
  8 12  1  0  0  0  0
  8 13  1  0  0  0  0
  8 24  1  0  0  0  0
  8 25  1  0  0  0  0
  9 17  1  0  0  0  0
  9 26  1  0  0  0  0
  9 27  1  0  0  0  0
 11 13  1  0  0  0  0
 11 15  1  0  0  0  0
 11 28  1  0  0  0  0
 11 29  1  0  0  0  0
 14 15  1  0  0  0  0
 14 16  1  0  0  0  0
 14 30  1  0  0  0  0
 14 31  1  0  0  0  0
 16 18  1  0  0  0  0
 17 32  1  0  0  0  0
 17 33  1  0  0  0  0
 17 34  1  0  0  0  0
 18 19  1  0  0  0  0
 18 35  1  0  0  0  0
 18 36  1  0  0  0  0
 19 37  1  0  0  0  0
 19 38  1  0  0  0  0
 19 39  1  0  0  0  0
M  END
> <PUBCHEM_COMPOUND_CID>
89102979

> <PUBCHEM_COMPOUND_CANONICALIZED>
1

> <PUBCHEM_CACTVS_COMPLEXITY>
381

> <PUBCHEM_CACTVS_HBOND_ACCEPTOR>
5

> <PUBCHEM_CACTVS_HBOND_DONOR>
0

> <PUBCHEM_CACTVS_ROTATABLE_BOND>
11

> <PUBCHEM_CACTVS_SUBSKEYS>
AAADceBwOAAAAAAAAAAAAAAAAAAAAAAAAAAAAAAAAAAAAAAAAAAAGgAAAAAACASAgAACAAAAAAAIAIAQAAAAAAAAAAAAAAEAAAAAABIIAAAAAAAAAAAAAAEIioCgAAAAAAAAAAAAAAAAAAAAAAAAAAAAAA==

> <PUBCHEM_IUPAC_OPENEYE_NAME>
tetradecane-3,5,7,9,11-pentone

> <PUBCHEM_IUPAC_CAS_NAME>
tetradecane-3,5,7,9,11-pentone

> <PUBCHEM_IUPAC_NAME_MARKUP>
tetradecane-3,5,7,9,11-pentone

> <PUBCHEM_IUPAC_NAME>
tetradecane-3,5,7,9,11-pentone

> <PUBCHEM_IUPAC_SYSTEMATIC_NAME>
tetradecane-3,5,7,9,11-pentone

> <PUBCHEM_IUPAC_TRADITIONAL_NAME>
tetradecane-3,5,7,9,11-pentone

> <PUBCHEM_IUPAC_INCHI>
InChI=1S/C14H20O5/c1-3-5-11(16)7-13(18)9-14(19)8-12(17)6-10(15)4-2/h3-9H2,1-2H3

> <PUBCHEM_IUPAC_INCHIKEY>
MGKMSQCFRQWCTM-UHFFFAOYSA-N

> <PUBCHEM_XLOGP3_AA>
0.7

> <PUBCHEM_EXACT_MASS>
268.13107373

> <PUBCHEM_MOLECULAR_FORMULA>
C14H20O5

> <PUBCHEM_MOLECULAR_WEIGHT>
268.30

> <PUBCHEM_OPENEYE_CAN_SMILES>
CCCC(=O)CC(=O)CC(=O)CC(=O)CC(=O)CC

> <PUBCHEM_OPENEYE_ISO_SMILES>
CCCC(=O)CC(=O)CC(=O)CC(=O)CC(=O)CC

> <PUBCHEM_CACTVS_TPSA>
85.4

> <PUBCHEM_MONOISOTOPIC_WEIGHT>
268.13107373

> <PUBCHEM_TOTAL_CHARGE>
0

> <PUBCHEM_HEAVY_ATOM_COUNT>
19

> <PUBCHEM_ATOM_DEF_STEREO_COUNT>
0

> <PUBCHEM_ATOM_UDEF_STEREO_COUNT>
0

> <PUBCHEM_BOND_DEF_STEREO_COUNT>
0

> <PUBCHEM_BOND_UDEF_STEREO_COUNT>
0

> <PUBCHEM_ISOTOPIC_ATOM_COUNT>
0

> <PUBCHEM_COMPONENT_COUNT>
1

> <PUBCHEM_CACTVS_TAUTO_COUNT>
-1

> <PUBCHEM_COORDINATE_TYPE>
1
5
255

$$$$
