 
  -OEChem-10192104282D

 68 74  0     1  0  0  0  0  0999 V2000
    6.0686   -3.3120    0.0000 O   0  0  0  0  0  0  0  0  0  0  0  0
    8.4289    2.8427    0.0000 O   0  0  0  0  0  0  0  0  0  0  0  0
    4.2161   -1.5180    0.0000 O   0  0  0  0  0  0  0  0  0  0  0  0
   10.6890    1.5826    0.0000 O   0  0  0  0  0  0  0  0  0  0  0  0
    3.2414   -2.3371    0.0000 O   0  0  0  0  0  0  0  0  0  0  0  0
   11.4180    2.6337    0.0000 O   0  0  0  0  0  0  0  0  0  0  0  0
    2.0000   -5.5711    0.0000 O   0  0  0  0  0  0  0  0  0  0  0  0
   11.7801    6.0788    0.0000 O   0  0  0  0  0  0  0  0  0  0  0  0
    6.3412   -0.7689    0.0000 N   0  0  0  0  0  0  0  0  0  0  0  0
    8.8244    0.3094    0.0000 N   0  0  0  0  0  0  0  0  0  0  0  0
    4.3314   -3.6832    0.0000 N   0  0  0  0  0  0  0  0  0  0  0  0
   10.0167    3.6517    0.0000 N   0  0  0  0  0  0  0  0  0  0  0  0
    5.5144   -0.2244    0.0000 N   0  0  0  0  0  0  0  0  0  0  0  0
    9.4054   -0.4986    0.0000 N   0  0  0  0  0  0  0  0  0  0  0  0
    5.8692    0.6999    0.0000 N   0  0  0  0  0  0  0  0  0  0  0  0
    8.9534   -1.3853    0.0000 N   0  0  0  0  0  0  0  0  0  0  0  0
    2.6207   -3.9541    0.0000 N   0  0  0  0  0  0  0  0  0  0  0  0
   11.5990    4.3562    0.0000 N   0  0  0  0  0  0  0  0  0  0  0  0
    5.9828   -1.7025    0.0000 C   0  0  2  0  0  0  0  0  0  0  0  0
    8.9289    1.3039    0.0000 C   0  0  2  0  0  0  0  0  0  0  0  0
    6.6121   -2.4797    0.0000 C   0  0  1  0  0  0  0  0  0  0  0  0
    8.1199    1.8917    0.0000 C   0  0  1  0  0  0  0  0  0  0  0  0
    5.0557   -2.0612    0.0000 C   0  0  2  0  0  0  0  0  0  0  0  0
    9.7380    1.8917    0.0000 C   0  0  2  0  0  0  0  0  0  0  0  0
    5.1086   -3.0538    0.0000 C   0  0  1  0  0  0  0  0  0  0  0  0
    9.4289    2.8427    0.0000 C   0  0  1  0  0  0  0  0  0  0  0  0
    7.5998   -2.3232    0.0000 C   0  0  0  0  0  0  0  0  0  0  0  0
    7.2064    1.4849    0.0000 C   0  0  0  0  0  0  0  0  0  0  0  0
    7.9582   -1.3896    0.0000 C   0  0  0  0  0  0  0  0  0  0  0  0
    6.8480    0.5514    0.0000 C   0  0  0  0  0  0  0  0  0  0  0  0
    8.7354   -0.7603    0.0000 C   0  0  0  0  0  0  0  0  0  0  0  0
    5.9345    0.1446    0.0000 C   0  0  0  0  0  0  0  0  0  0  0  0
    4.4879   -4.6708    0.0000 C   0  0  0  0  0  0  0  0  0  0  0  0
    9.6100    4.5653    0.0000 C   0  0  0  0  0  0  0  0  0  0  0  0
    3.3979   -3.3248    0.0000 C   0  0  0  0  0  0  0  0  0  0  0  0
   11.0112    3.5472    0.0000 C   0  0  0  0  0  0  0  0  0  0  0  0
    3.7107   -5.3002    0.0000 C   0  0  0  0  0  0  0  0  0  0  0  0
   10.1978    5.3743    0.0000 C   0  0  0  0  0  0  0  0  0  0  0  0
    2.7771   -4.9418    0.0000 C   0  0  0  0  0  0  0  0  0  0  0  0
   11.1923    5.2698    0.0000 C   0  0  0  0  0  0  0  0  0  0  0  0
    3.8672   -6.2878    0.0000 C   0  0  0  0  0  0  0  0  0  0  0  0
    9.7910    6.2878    0.0000 C   0  0  0  0  0  0  0  0  0  0  0  0
    5.3810   -1.1022    0.0000 H   0  0  0  0  0  0  0  0  0  0  0  0
    9.6651    0.8789    0.0000 H   0  0  0  0  0  0  0  0  0  0  0  0
    7.1471   -3.1402    0.0000 H   0  0  0  0  0  0  0  0  0  0  0  0
    7.4882    2.4604    0.0000 H   0  0  0  0  0  0  0  0  0  0  0  0
    5.1192   -1.4444    0.0000 H   0  0  0  0  0  0  0  0  0  0  0  0
   10.1764    2.3301    0.0000 H   0  0  0  0  0  0  0  0  0  0  0  0
    4.5421   -2.8019    0.0000 H   0  0  0  0  0  0  0  0  0  0  0  0
   10.0413    2.7457    0.0000 H   0  0  0  0  0  0  0  0  0  0  0  0
    7.5890   -2.9431    0.0000 H   0  0  0  0  0  0  0  0  0  0  0  0
    8.2084   -2.4415    0.0000 H   0  0  0  0  0  0  0  0  0  0  0  0
    7.1094    2.0973    0.0000 H   0  0  0  0  0  0  0  0  0  0  0  0
    6.5898    1.5497    0.0000 H   0  0  0  0  0  0  0  0  0  0  0  0
    9.2834   -1.0502    0.0000 H   0  0  0  0  0  0  0  0  0  0  0  0
    5.3556    0.3668    0.0000 H   0  0  0  0  0  0  0  0  0  0  0  0
    4.2475   -0.8988    0.0000 H   0  0  0  0  0  0  0  0  0  0  0  0
   10.8179    0.9762    0.0000 H   0  0  0  0  0  0  0  0  0  0  0  0
    5.0667   -4.8930    0.0000 H   0  0  0  0  0  0  0  0  0  0  0  0
    8.9934    4.6301    0.0000 H   0  0  0  0  0  0  0  0  0  0  0  0
    2.0419   -3.7319    0.0000 H   0  0  0  0  0  0  0  0  0  0  0  0
   12.2156    4.2914    0.0000 H   0  0  0  0  0  0  0  0  0  0  0  0
    3.2548   -6.3848    0.0000 H   0  0  0  0  0  0  0  0  0  0  0  0
    3.9642   -6.9002    0.0000 H   0  0  0  0  0  0  0  0  0  0  0  0
    4.4795   -6.1909    0.0000 H   0  0  0  0  0  0  0  0  0  0  0  0
   10.3574    6.5400    0.0000 H   0  0  0  0  0  0  0  0  0  0  0  0
    9.5388    6.8542    0.0000 H   0  0  0  0  0  0  0  0  0  0  0  0
    9.2246    6.0357    0.0000 H   0  0  0  0  0  0  0  0  0  0  0  0
  1 21  1  0  0  0  0
  1 25  1  0  0  0  0
  2 22  1  0  0  0  0
  2 26  1  0  0  0  0
 23  3  1  6  0  0  0
  3 57  1  0  0  0  0
 24  4  1  6  0  0  0
  4 58  1  0  0  0  0
  5 35  2  0  0  0  0
  6 36  2  0  0  0  0
  7 39  2  0  0  0  0
  8 40  2  0  0  0  0
  9 13  1  0  0  0  0
  9 19  1  0  0  0  0
  9 32  1  0  0  0  0
 10 14  1  0  0  0  0
 10 20  1  0  0  0  0
 10 31  1  0  0  0  0
 25 11  1  1  0  0  0
 11 33  1  0  0  0  0
 11 35  1  0  0  0  0
 26 12  1  1  0  0  0
 12 34  1  0  0  0  0
 12 36  1  0  0  0  0
 13 15  2  0  0  0  0
 14 16  2  0  0  0  0
 15 30  1  0  0  0  0
 16 29  1  0  0  0  0
 17 35  1  0  0  0  0
 17 39  1  0  0  0  0
 17 61  1  0  0  0  0
 18 36  1  0  0  0  0
 18 40  1  0  0  0  0
 18 62  1  0  0  0  0
 19 21  1  0  0  0  0
 19 23  1  0  0  0  0
 19 43  1  1  0  0  0
 20 22  1  0  0  0  0
 20 24  1  0  0  0  0
 20 44  1  1  0  0  0
 21 27  1  0  0  0  0
 21 45  1  6  0  0  0
 22 28  1  0  0  0  0
 22 46  1  6  0  0  0
 23 25  1  0  0  0  0
 23 47  1  0  0  0  0
 24 26  1  0  0  0  0
 24 48  1  0  0  0  0
 25 49  1  0  0  0  0
 26 50  1  0  0  0  0
 27 29  1  0  0  0  0
 27 51  1  0  0  0  0
 27 52  1  0  0  0  0
 28 30  1  0  0  0  0
 28 53  1  0  0  0  0
 28 54  1  0  0  0  0
 29 31  2  0  0  0  0
 30 32  2  0  0  0  0
 31 55  1  0  0  0  0
 32 56  1  0  0  0  0
 33 37  2  0  0  0  0
 33 59  1  0  0  0  0
 34 38  2  0  0  0  0
 34 60  1  0  0  0  0
 37 39  1  0  0  0  0
 37 41  1  0  0  0  0
 38 40  1  0  0  0  0
 38 42  1  0  0  0  0
 41 63  1  0  0  0  0
 41 64  1  0  0  0  0
 41 65  1  0  0  0  0
 42 66  1  0  0  0  0
 42 67  1  0  0  0  0
 42 68  1  0  0  0  0
M  END
> <PUBCHEM_COMPOUND_CID>
78319460

> <PUBCHEM_COMPOUND_CANONICALIZED>
1

> <PUBCHEM_CACTVS_COMPLEXITY>
1170

> <PUBCHEM_CACTVS_HBOND_ACCEPTOR>
12

> <PUBCHEM_CACTVS_HBOND_DONOR>
4

> <PUBCHEM_CACTVS_ROTATABLE_BOND>
2

> <PUBCHEM_CACTVS_SUBSKEYS>
AAADceB7/AAAAAAAAAAAAAAAAAAAAWLEiQAgQAAAAAAAAAAB4AAAHgAYCAAADDzhlgYvgBPIBgCqAxV3VACABAQxkgAQUAE4cEiDcAJA0QCfQAAPxyPTQMGw0CEAAAAAAAAAAAAAAAAAAAAAAAAAAAAAAA==

> <PUBCHEM_IUPAC_OPENEYE_NAME>
1-[(2S,3R,4R,6R,12S,13R,14R,16R)-3,13-dihydroxy-14-(5-methyl-2,4-dioxo-pyrimidin-1-yl)-5,15-dioxa-1,9,10,11,19,20-hexazapentacyclo[16.2.1.18,11.02,6.012,16]docosa-8(22),9,18(21),19-tetraen-4-yl]-5-methyl-pyrimidine-2,4-dione

> <PUBCHEM_IUPAC_CAS_NAME>
1-[(2S,3R,4R,6R,12S,13R,14R,16R)-3,13-dihydroxy-14-(5-methyl-2,4-dioxo-1-pyrimidinyl)-5,15-dioxa-1,9,10,11,19,20-hexazapentacyclo[16.2.1.18,11.02,6.012,16]docosa-8(22),9,18(21),19-tetraen-4-yl]-5-methylpyrimidine-2,4-dione

> <PUBCHEM_IUPAC_NAME_MARKUP>
1-[(2<I>S</I>,3<I>R</I>,4<I>R</I>,6<I>R</I>,12<I>S</I>,13<I>R</I>,14<I>R</I>,16<I>R</I>)-3,13-dihydroxy-14-(5-methyl-2,4-dioxopyrimidin-1-yl)-5,15-dioxa-1,9,10,11,19,20-hexazapentacyclo[16.2.1.1<SUP>8,11</SUP>.0<SUP>2,6</SUP>.0<SUP>12,16</SUP>]docosa-8(22),9,18(21),19-tetraen-4-yl]-5-methylpyrimidine-2,4-dione

> <PUBCHEM_IUPAC_NAME>
1-[(2S,3R,4R,6R,12S,13R,14R,16R)-3,13-dihydroxy-14-(5-methyl-2,4-dioxopyrimidin-1-yl)-5,15-dioxa-1,9,10,11,19,20-hexazapentacyclo[16.2.1.18,11.02,6.012,16]docosa-8(22),9,18(21),19-tetraen-4-yl]-5-methylpyrimidine-2,4-dione

> <PUBCHEM_IUPAC_SYSTEMATIC_NAME>
5-methyl-1-[(2S,3R,4R,6R,12S,13R,14R,16R)-14-[5-methyl-2,4-bis(oxidanylidene)pyrimidin-1-yl]-3,13-bis(oxidanyl)-5,15-dioxa-1,9,10,11,19,20-hexazapentacyclo[16.2.1.18,11.02,6.012,16]docosa-8(22),9,18(21),19-tetraen-4-yl]pyrimidine-2,4-dione

> <PUBCHEM_IUPAC_TRADITIONAL_NAME>
1-[(2S,3R,4R,6R,12S,13R,14R,16R)-14-(2,4-diketo-5-methyl-pyrimidin-1-yl)-3,13-dihydroxy-5,15-dioxa-1,9,10,11,19,20-hexazapentacyclo[16.2.1.18,11.02,6.012,16]docosa-8(22),9,18(21),19-tetraen-4-yl]-5-methyl-pyrimidine-2,4-quinone

> <PUBCHEM_IUPAC_INCHI>
InChI=1S/C24H26N10O8/c1-9-5-31(23(39)25-19(9)37)21-17(35)15-13(41-21)3-11-8-34(30-27-11)16-14(4-12-7-33(15)29-28-12)42-22(18(16)36)32-6-10(2)20(38)26-24(32)40/h5-8,13-18,21-22,35-36H,3-4H2,1-2H3,(H,25,37,39)(H,26,38,40)/t13-,14-,15-,16-,17-,18-,21-,22-/m1/s1

> <PUBCHEM_IUPAC_INCHIKEY>
AUZUQZBVAPDHCT-NLCHWWMDSA-N

> <PUBCHEM_XLOGP3_AA>
-3.4

> <PUBCHEM_EXACT_MASS>
582.19350783

> <PUBCHEM_MOLECULAR_FORMULA>
C24H26N10O8

> <PUBCHEM_MOLECULAR_WEIGHT>
582.5

> <PUBCHEM_OPENEYE_CAN_SMILES>
CC1=CN(C(=O)NC1=O)C2C(C3C(O2)CC4=CN(C5C(CC6=CN3N=N6)OC(C5O)N7C=C(C(=O)NC7=O)C)N=N4)O

> <PUBCHEM_OPENEYE_ISO_SMILES>
CC1=CN(C(=O)NC1=O)[C@H]2[C@@H]([C@H]3[C@H](O2)CC4=CN([C@@H]5[C@@H](CC6=CN3N=N6)O[C@H]([C@@H]5O)N7C=C(C(=O)NC7=O)C)N=N4)O

> <PUBCHEM_CACTVS_TPSA>
219

> <PUBCHEM_MONOISOTOPIC_WEIGHT>
582.19350783

> <PUBCHEM_TOTAL_CHARGE>
0

> <PUBCHEM_HEAVY_ATOM_COUNT>
42

> <PUBCHEM_ATOM_DEF_STEREO_COUNT>
8

> <PUBCHEM_ATOM_UDEF_STEREO_COUNT>
0

> <PUBCHEM_BOND_DEF_STEREO_COUNT>
0

> <PUBCHEM_BOND_UDEF_STEREO_COUNT>
0

> <PUBCHEM_ISOTOPIC_ATOM_COUNT>
0

> <PUBCHEM_COMPONENT_COUNT>
1

> <PUBCHEM_CACTVS_TAUTO_COUNT>
-1

> <PUBCHEM_COORDINATE_TYPE>
1
5
255

> <PUBCHEM_BONDANNOTATIONS>
10  14  8
10  31  8
25  11  5
11  33  8
11  35  8
26  12  5
12  34  8
12  36  8
13  15  8
14  16  8
15  30  8
16  29  8
17  35  8
17  39  8
18  36  8
18  40  8
19  43  5
20  44  5
21  45  6
22  46  6
29  31  8
23  3  6
30  32  8
33  37  8
34  38  8
37  39  8
38  40  8
24  4  6
9  13  8
9  32  8

$$$$
