 
  -OEChem-10192103462D

 14 16  0     1  0  0  0  0  0999 V2000
    3.6730    1.1131    0.0000 P   0  0  3  0  0  0  0  0  0  0  0  0
    4.5092    0.6303    0.0000 O   0  0  0  0  0  0  0  0  0  0  0  0
    2.9819    0.2750    0.0000 O   0  0  0  0  0  0  0  0  0  0  0  0
    2.8368    0.6303    0.0000 O   0  0  0  0  0  0  0  0  0  0  0  0
    3.6730    2.1131    0.0000 O   0  0  0  0  0  0  0  0  0  0  0  0
    4.3876   -2.1131    0.0000 O   0  0  0  0  0  0  0  0  0  0  0  0
    3.1728   -1.5038    0.0000 O   0  0  0  0  0  0  0  0  0  0  0  0
    4.5092   -0.3352    0.0000 N   0  0  0  0  0  0  0  0  0  0  0  0
    2.9819   -0.7703    0.0000 N   0  0  0  0  0  0  0  0  0  0  0  0
    2.8368   -0.3352    0.0000 C   0  0  0  0  0  0  0  0  0  0  0  0
    3.8876   -1.2471    0.0000 C   0  0  0  0  0  0  0  0  0  0  0  0
    3.6730   -0.6380    0.0000 C   0  0  0  0  0  0  0  0  0  0  0  0
    2.0000   -0.8180    0.0000 C   0  0  0  0  0  0  0  0  0  0  0  0
    1.4052   -0.9928    0.0000 H   0  0  0  0  0  0  0  0  0  0  0  0
  1  2  1  0  0  0  0
  1  3  1  0  0  0  0
  1  4  1  0  0  0  0
  1  5  2  0  0  0  0
  2  8  1  0  0  0  0
  3  9  1  0  0  0  0
  4 10  1  0  0  0  0
  6 11  2  0  0  0  0
  7 12  2  0  0  0  0
  8 11  1  0  0  0  0
  8 12  1  0  0  0  0
  9 11  1  0  0  0  0
  9 13  1  0  0  0  0
 10 12  1  0  0  0  0
 10 13  2  0  0  0  0
 13 14  1  0  0  0  0
M  END
> <PUBCHEM_COMPOUND_CID>
129722533

> <PUBCHEM_COMPOUND_CANONICALIZED>
1

> <PUBCHEM_CACTVS_COMPLEXITY>
415

> <PUBCHEM_CACTVS_HBOND_ACCEPTOR>
6

> <PUBCHEM_CACTVS_HBOND_DONOR>
0

> <PUBCHEM_CACTVS_ROTATABLE_BOND>
0

> <PUBCHEM_CACTVS_SUBSKEYS>
AAADcQBjOAIAAAAAAAAAAAAAAAAAAAAAAAAsWIEAAAAAAAAAAAAAHgAEACAACATBgAQBAAIQARCIQAFWUIKAAAAAAAAgAABIAECCAAAAAAAAAAAIByIQAMAAAAAAAAAAAAAAAAAAAAAAAAAAAAAAAAAAAA==

> <PUBCHEM_IUPAC_OPENEYE_NAME>
3-oxo-2,4,10-trioxa-1,5-diaza-3lambda5-phosphatricyclo[3.3.1.13,7]dec-7-ene-6,9-dione

> <PUBCHEM_IUPAC_CAS_NAME>
3-oxo-2,4,10-trioxa-1,5-diaza-3lambda5-phosphatricyclo[3.3.1.13,7]dec-7-ene-6,9-dione

> <PUBCHEM_IUPAC_NAME_MARKUP>
3-oxo-2,4,10-trioxa-1,5-diaza-3&lambda;<SUP>5</SUP>-phosphatricyclo[3.3.1.1<SUP>3,7</SUP>]dec-7-ene-6,9-dione

> <PUBCHEM_IUPAC_NAME>
3-oxo-2,4,10-trioxa-1,5-diaza-3lambda5-phosphatricyclo[3.3.1.13,7]dec-7-ene-6,9-dione

> <PUBCHEM_IUPAC_SYSTEMATIC_NAME>
3-oxidanylidene-2,4,10-trioxa-1,5-diaza-3lambda5-phosphatricyclo[3.3.1.13,7]dec-7-ene-6,9-dione

> <PUBCHEM_IUPAC_TRADITIONAL_NAME>
3-keto-2,4,10-trioxa-1,5-diaza-3lambda5-phosphatricyclo[3.3.1.13,7]dec-7-ene-6,9-quinone

> <PUBCHEM_IUPAC_INCHI>
InChI=1S/C4HN2O6P/c7-3-2-1-5-4(8)6(3)12-13(9,10-2)11-5/h1H

> <PUBCHEM_IUPAC_INCHIKEY>
FHUIMVWBYRBWFU-UHFFFAOYSA-N

> <PUBCHEM_XLOGP3_AA>
-1.1

> <PUBCHEM_EXACT_MASS>
203.95722275

> <PUBCHEM_MOLECULAR_FORMULA>
C4HN2O6P

> <PUBCHEM_MOLECULAR_WEIGHT>
204.03

> <PUBCHEM_OPENEYE_CAN_SMILES>
C1=C2C(=O)N3C(=O)N1OP(=O)(O2)O3

> <PUBCHEM_OPENEYE_ISO_SMILES>
C1=C2C(=O)N3C(=O)N1OP(=O)(O2)O3

> <PUBCHEM_CACTVS_TPSA>
85.4

> <PUBCHEM_MONOISOTOPIC_WEIGHT>
203.95722275

> <PUBCHEM_TOTAL_CHARGE>
0

> <PUBCHEM_HEAVY_ATOM_COUNT>
13

> <PUBCHEM_ATOM_DEF_STEREO_COUNT>
0

> <PUBCHEM_ATOM_UDEF_STEREO_COUNT>
1

> <PUBCHEM_BOND_DEF_STEREO_COUNT>
0

> <PUBCHEM_BOND_UDEF_STEREO_COUNT>
0

> <PUBCHEM_ISOTOPIC_ATOM_COUNT>
0

> <PUBCHEM_COMPONENT_COUNT>
1

> <PUBCHEM_CACTVS_TAUTO_COUNT>
-1

> <PUBCHEM_COORDINATE_TYPE>
1
5
255

> <PUBCHEM_BONDANNOTATIONS>
1  4  3
10  12  8
10  13  8
8  11  8
8  12  8
9  11  8
9  13  8

$$$$
