 
  -OEChem-10192103542D

 75 75  0     1  0  0  0  0  0999 V2000
    5.1350   -0.6900    0.0000 P   0  0  3  0  0  0  0  0  0  0  0  0
    3.4030   -5.6900    0.0000 P   0  0  0  0  0  0  0  0  0  0  0  0
    4.2690   -1.1900    0.0000 O   0  0  0  0  0  0  0  0  0  0  0  0
    4.2690   -5.1900    0.0000 O   0  0  0  0  0  0  0  0  0  0  0  0
    6.0010   -2.1900    0.0000 O   0  0  0  0  0  0  0  0  0  0  0  0
    2.5369   -2.1900    0.0000 O   0  0  0  0  0  0  0  0  0  0  0  0
    6.0010   -4.1900    0.0000 O   0  0  0  0  0  0  0  0  0  0  0  0
    2.5369   -4.1900    0.0000 O   0  0  0  0  0  0  0  0  0  0  0  0
    6.0010   -0.1900    0.0000 O   0  0  0  0  0  0  0  0  0  0  0  0
    4.6350    0.1760    0.0000 O   0  0  0  0  0  0  0  0  0  0  0  0
    2.5369   -6.1900    0.0000 O   0  0  0  0  0  0  0  0  0  0  0  0
    3.9030   -6.5560    0.0000 O   0  0  0  0  0  0  0  0  0  0  0  0
    5.6350   -1.5560    0.0000 O   0  0  0  0  0  0  0  0  0  0  0  0
    2.9030   -4.8240    0.0000 O   0  0  0  0  0  0  0  0  0  0  0  0
    7.7331    0.8100    0.0000 O   0  0  0  0  0  0  0  0  0  0  0  0
    7.7331    2.8100    0.0000 O   0  0  0  0  0  0  0  0  0  0  0  0
    4.2690   -2.1900    0.0000 C   0  0  0  0  0  0  0  0  0  0  0  0
    4.2690   -4.1900    0.0000 C   0  0  0  0  0  0  0  0  0  0  0  0
    5.1350   -2.6900    0.0000 C   0  0  2  0  0  0  0  0  0  0  0  0
    3.4030   -2.6900    0.0000 C   0  0  2  0  0  0  0  0  0  0  0  0
    5.1350   -3.6900    0.0000 C   0  0  1  0  0  0  0  0  0  0  0  0
    3.4030   -3.6900    0.0000 C   0  0  2  0  0  0  0  0  0  0  0  0
    6.0010    0.8100    0.0000 C   0  0  0  0  0  0  0  0  0  0  0  0
    6.8671    1.3100    0.0000 C   0  0  1  0  0  0  0  0  0  0  0  0
    6.8671    2.3100    0.0000 C   0  0  0  0  0  0  0  0  0  0  0  0
    8.5991    1.3100    0.0000 C   0  0  0  0  0  0  0  0  0  0  0  0
    9.4651    0.8100    0.0000 C   0  0  0  0  0  0  0  0  0  0  0  0
   10.3312    1.3100    0.0000 C   0  0  0  0  0  0  0  0  0  0  0  0
    7.7331    3.8100    0.0000 C   0  0  0  0  0  0  0  0  0  0  0  0
    8.5991    4.3100    0.0000 C   0  0  0  0  0  0  0  0  0  0  0  0
    8.5991    5.3100    0.0000 C   0  0  0  0  0  0  0  0  0  0  0  0
   11.1972    0.8100    0.0000 C   0  0  0  0  0  0  0  0  0  0  0  0
    9.4651    5.8100    0.0000 C   0  0  0  0  0  0  0  0  0  0  0  0
   12.0632    1.3100    0.0000 C   0  0  0  0  0  0  0  0  0  0  0  0
    9.4651    6.8100    0.0000 C   0  0  0  0  0  0  0  0  0  0  0  0
    4.8059   -1.8800    0.0000 H   0  0  0  0  0  0  0  0  0  0  0  0
    4.8059   -4.5000    0.0000 H   0  0  0  0  0  0  0  0  0  0  0  0
    5.6720   -3.0000    0.0000 H   0  0  0  0  0  0  0  0  0  0  0  0
    3.4030   -2.0700    0.0000 H   0  0  0  0  0  0  0  0  0  0  0  0
    5.6720   -3.3800    0.0000 H   0  0  0  0  0  0  0  0  0  0  0  0
    3.4030   -4.3100    0.0000 H   0  0  0  0  0  0  0  0  0  0  0  0
    6.5380   -2.5000    0.0000 H   0  0  0  0  0  0  0  0  0  0  0  0
    2.0000   -2.5000    0.0000 H   0  0  0  0  0  0  0  0  0  0  0  0
    6.0010   -4.8100    0.0000 H   0  0  0  0  0  0  0  0  0  0  0  0
    2.0000   -3.8800    0.0000 H   0  0  0  0  0  0  0  0  0  0  0  0
    5.7890    1.3926    0.0000 H   0  0  0  0  0  0  0  0  0  0  0  0
    5.3905    0.7023    0.0000 H   0  0  0  0  0  0  0  0  0  0  0  0
    7.4040    1.6200    0.0000 H   0  0  0  0  0  0  0  0  0  0  0  0
    4.0150    0.1760    0.0000 H   0  0  0  0  0  0  0  0  0  0  0  0
    2.5369   -6.8100    0.0000 H   0  0  0  0  0  0  0  0  0  0  0  0
    4.5230   -6.5560    0.0000 H   0  0  0  0  0  0  0  0  0  0  0  0
    6.6550    2.8926    0.0000 H   0  0  0  0  0  0  0  0  0  0  0  0
    6.2565    2.2023    0.0000 H   0  0  0  0  0  0  0  0  0  0  0  0
    8.9976    1.7850    0.0000 H   0  0  0  0  0  0  0  0  0  0  0  0
    8.2006    1.7850    0.0000 H   0  0  0  0  0  0  0  0  0  0  0  0
    9.0666    0.3351    0.0000 H   0  0  0  0  0  0  0  0  0  0  0  0
    9.8637    0.3351    0.0000 H   0  0  0  0  0  0  0  0  0  0  0  0
   10.7297    1.7850    0.0000 H   0  0  0  0  0  0  0  0  0  0  0  0
    9.9326    1.7850    0.0000 H   0  0  0  0  0  0  0  0  0  0  0  0
    7.5210    4.3926    0.0000 H   0  0  0  0  0  0  0  0  0  0  0  0
    7.1225    3.7023    0.0000 H   0  0  0  0  0  0  0  0  0  0  0  0
    8.8112    3.7274    0.0000 H   0  0  0  0  0  0  0  0  0  0  0  0
    9.2097    4.4177    0.0000 H   0  0  0  0  0  0  0  0  0  0  0  0
    8.3871    5.8926    0.0000 H   0  0  0  0  0  0  0  0  0  0  0  0
    7.9885    5.2023    0.0000 H   0  0  0  0  0  0  0  0  0  0  0  0
   10.7987    0.3351    0.0000 H   0  0  0  0  0  0  0  0  0  0  0  0
   11.5957    0.3351    0.0000 H   0  0  0  0  0  0  0  0  0  0  0  0
    9.6772    5.2274    0.0000 H   0  0  0  0  0  0  0  0  0  0  0  0
   10.0757    5.9177    0.0000 H   0  0  0  0  0  0  0  0  0  0  0  0
   12.3732    0.7731    0.0000 H   0  0  0  0  0  0  0  0  0  0  0  0
   12.6002    1.6200    0.0000 H   0  0  0  0  0  0  0  0  0  0  0  0
   11.7532    1.8469    0.0000 H   0  0  0  0  0  0  0  0  0  0  0  0
   10.0851    6.8100    0.0000 H   0  0  0  0  0  0  0  0  0  0  0  0
    9.4651    7.4300    0.0000 H   0  0  0  0  0  0  0  0  0  0  0  0
    8.8451    6.8100    0.0000 H   0  0  0  0  0  0  0  0  0  0  0  0
  1  3  1  0  0  0  0
  1  9  1  0  0  0  0
  1 10  1  0  0  0  0
  1 13  2  0  0  0  0
  2  4  1  0  0  0  0
  2 11  1  0  0  0  0
  2 12  1  0  0  0  0
  2 14  2  0  0  0  0
  3 17  1  0  0  0  0
  4 18  1  0  0  0  0
 19  5  1  1  0  0  0
  5 42  1  0  0  0  0
 20  6  1  6  0  0  0
  6 43  1  0  0  0  0
 21  7  1  1  0  0  0
  7 44  1  0  0  0  0
 22  8  1  1  0  0  0
  8 45  1  0  0  0  0
  9 23  1  0  0  0  0
 10 49  1  0  0  0  0
 11 50  1  0  0  0  0
 12 51  1  0  0  0  0
 24 15  1  1  0  0  0
 15 26  1  0  0  0  0
 16 25  1  0  0  0  0
 16 29  1  0  0  0  0
 17 19  1  0  0  0  0
 17 20  1  0  0  0  0
 17 36  1  0  0  0  0
 18 21  1  0  0  0  0
 18 22  1  0  0  0  0
 18 37  1  0  0  0  0
 19 21  1  0  0  0  0
 19 38  1  0  0  0  0
 20 22  1  0  0  0  0
 20 39  1  0  0  0  0
 21 40  1  0  0  0  0
 22 41  1  0  0  0  0
 23 24  1  0  0  0  0
 23 46  1  0  0  0  0
 23 47  1  0  0  0  0
 24 25  1  0  0  0  0
 24 48  1  0  0  0  0
 25 52  1  0  0  0  0
 25 53  1  0  0  0  0
 26 27  1  0  0  0  0
 26 54  1  0  0  0  0
 26 55  1  0  0  0  0
 27 28  1  0  0  0  0
 27 56  1  0  0  0  0
 27 57  1  0  0  0  0
 28 32  1  0  0  0  0
 28 58  1  0  0  0  0
 28 59  1  0  0  0  0
 29 30  1  0  0  0  0
 29 60  1  0  0  0  0
 29 61  1  0  0  0  0
 30 31  1  0  0  0  0
 30 62  1  0  0  0  0
 30 63  1  0  0  0  0
 31 33  1  0  0  0  0
 31 64  1  0  0  0  0
 31 65  1  0  0  0  0
 32 34  1  0  0  0  0
 32 66  1  0  0  0  0
 32 67  1  0  0  0  0
 33 35  1  0  0  0  0
 33 68  1  0  0  0  0
 33 69  1  0  0  0  0
 34 70  1  0  0  0  0
 34 71  1  0  0  0  0
 34 72  1  0  0  0  0
 35 73  1  0  0  0  0
 35 74  1  0  0  0  0
 35 75  1  0  0  0  0
M  END
> <PUBCHEM_COMPOUND_CID>
87692338

> <PUBCHEM_COMPOUND_CANONICALIZED>
1

> <PUBCHEM_CACTVS_COMPLEXITY>
660

> <PUBCHEM_CACTVS_HBOND_ACCEPTOR>
14

> <PUBCHEM_CACTVS_HBOND_DONOR>
7

> <PUBCHEM_CACTVS_ROTATABLE_BOND>
18

> <PUBCHEM_CACTVS_SUBSKEYS>
AAADcfB4PAMAAAAAAAAAAAAAAAAAAAAAAAAwAAAAAAAAAAAAAAAAGgAACCAACBSggAICAAAABxAAQAAAAIAAAAAAAAAAAAAAAAABEAIAAAACQAAFAAADAAHAYAQAAAAAAAAAAAACAAAQAACAAAAAAAAAAA==

> <PUBCHEM_IUPAC_OPENEYE_NAME>
[(2R)-2,3-dipentoxypropyl] [(2S,3S,5R,6S)-2,3,5,6-tetrahydroxy-4-phosphonooxy-cyclohexyl] hydrogen phosphate

> <PUBCHEM_IUPAC_CAS_NAME>
[(2R)-2,3-dipentoxypropyl] [(2S,3S,5R,6S)-2,3,5,6-tetrahydroxy-4-phosphonooxycyclohexyl] hydrogen phosphate

> <PUBCHEM_IUPAC_NAME_MARKUP>
[(2<I>R</I>)-2,3-dipentoxypropyl] [(2<I>S</I>,3<I>S</I>,5<I>R</I>,6<I>S</I>)-2,3,5,6-tetrahydroxy-4-phosphonooxycyclohexyl] hydrogen phosphate

> <PUBCHEM_IUPAC_NAME>
[(2R)-2,3-dipentoxypropyl] [(2S,3S,5R,6S)-2,3,5,6-tetrahydroxy-4-phosphonooxycyclohexyl] hydrogen phosphate

> <PUBCHEM_IUPAC_SYSTEMATIC_NAME>
[(2R)-2,3-dipentoxypropyl] [(2S,3S,5R,6S)-2,3,5,6-tetrakis(oxidanyl)-4-phosphonooxy-cyclohexyl] hydrogen phosphate

> <PUBCHEM_IUPAC_TRADITIONAL_NAME>
[(2R)-2,3-diamoxypropyl] [(2S,3S,5R,6S)-2,3,5,6-tetrahydroxy-4-phosphonooxy-cyclohexyl] hydrogen phosphate

> <PUBCHEM_IUPAC_INCHI>
InChI=1S/C19H40O14P2/c1-3-5-7-9-29-11-13(30-10-8-6-4-2)12-31-35(27,28)33-19-16(22)14(20)18(15(21)17(19)23)32-34(24,25)26/h13-23H,3-12H2,1-2H3,(H,27,28)(H2,24,25,26)/t13-,14-,15+,16+,17+,18?,19?/m1/s1

> <PUBCHEM_IUPAC_INCHIKEY>
UNTPUXSAQPVCBV-CVDJYPPESA-N

> <PUBCHEM_XLOGP3_AA>
-2

> <PUBCHEM_EXACT_MASS>
554.18932994

> <PUBCHEM_MOLECULAR_FORMULA>
C19H40O14P2

> <PUBCHEM_MOLECULAR_WEIGHT>
554.5

> <PUBCHEM_OPENEYE_CAN_SMILES>
CCCCCOCC(COP(=O)(O)OC1C(C(C(C(C1O)O)OP(=O)(O)O)O)O)OCCCCC

> <PUBCHEM_OPENEYE_ISO_SMILES>
CCCCCOC[C@H](COP(=O)(O)OC1[C@H]([C@H](C([C@H]([C@@H]1O)O)OP(=O)(O)O)O)O)OCCCCC

> <PUBCHEM_CACTVS_TPSA>
222

> <PUBCHEM_MONOISOTOPIC_WEIGHT>
554.18932994

> <PUBCHEM_TOTAL_CHARGE>
0

> <PUBCHEM_HEAVY_ATOM_COUNT>
35

> <PUBCHEM_ATOM_DEF_STEREO_COUNT>
5

> <PUBCHEM_ATOM_UDEF_STEREO_COUNT>
0

> <PUBCHEM_BOND_DEF_STEREO_COUNT>
0

> <PUBCHEM_BOND_UDEF_STEREO_COUNT>
0

> <PUBCHEM_ISOTOPIC_ATOM_COUNT>
0

> <PUBCHEM_COMPONENT_COUNT>
1

> <PUBCHEM_CACTVS_TAUTO_COUNT>
-1

> <PUBCHEM_COORDINATE_TYPE>
1
5
255

> <PUBCHEM_BONDANNOTATIONS>
24  15  5
19  5  5
20  6  6
21  7  5
22  8  5

$$$$
