 
  -OEChem-10192104162D

 77 81  0     1  0  0  0  0  0999 V2000
   16.5728    0.4991    0.0000 O   0  0  0  0  0  0  0  0  0  0  0  0
    4.6767   -1.1937    0.0000 O   0  0  0  0  0  0  0  0  0  0  0  0
   10.2202    0.8450    0.0000 O   0  0  0  0  0  0  0  0  0  0  0  0
   18.5887   -1.7226    0.0000 O   0  0  0  0  0  0  0  0  0  0  0  0
    3.7606    1.6630    0.0000 O   0  0  0  0  0  0  0  0  0  0  0  0
   19.1994    0.1819    0.0000 O   0  0  0  0  0  0  0  0  0  0  0  0
    2.4166    0.1819    0.0000 O   0  0  0  0  0  0  0  0  0  0  0  0
   16.6340   -2.1460    0.0000 O   0  0  0  0  0  0  0  0  0  0  0  0
    5.7153    1.2396    0.0000 O   0  0  0  0  0  0  0  0  0  0  0  0
   17.1834    2.4036    0.0000 O   0  0  0  0  0  0  0  0  0  0  0  0
    3.3327   -2.6748    0.0000 O   0  0  0  0  0  0  0  0  0  0  0  0
   11.5769    2.5676    0.0000 O   0  0  0  0  0  0  0  0  0  0  0  0
   10.8080    0.0360    0.0000 C   0  0  0  0  0  0  0  0  0  0  0  0
   11.6170   -0.5518    0.0000 C   0  0  0  0  0  0  0  0  0  0  0  0
    9.9990   -0.5518    0.0000 C   0  0  0  0  0  0  0  0  0  0  0  0
   17.9167   -0.9820    0.0000 C   0  0  1  0  0  0  0  0  0  0  0  0
    4.0660    0.7108    0.0000 C   0  0  1  0  0  0  0  0  0  0  0  0
   18.2221   -0.0298    0.0000 C   0  0  1  0  0  0  0  0  0  0  0  0
    3.3940   -0.0298    0.0000 C   0  0  1  0  0  0  0  0  0  0  0  0
   16.9394   -1.1937    0.0000 C   0  0  1  0  0  0  0  0  0  0  0  0
    5.0433    0.4991    0.0000 C   0  0  1  0  0  0  0  0  0  0  0  0
   11.3080   -1.5028    0.0000 C   0  0  0  0  0  0  0  0  0  0  0  0
   10.3080   -1.5028    0.0000 C   0  0  0  0  0  0  0  0  0  0  0  0
   17.5501    0.7108    0.0000 C   0  0  1  0  0  0  0  0  0  0  0  0
    3.6993   -0.9820    0.0000 C   0  0  1  0  0  0  0  0  0  0  0  0
   11.3958    0.8450    0.0000 C   0  0  0  0  0  0  0  0  0  0  0  0
   16.2674   -0.4532    0.0000 C   0  0  1  0  0  0  0  0  0  0  0  0
    5.3486   -0.4532    0.0000 C   0  0  1  0  0  0  0  0  0  0  0  0
   12.6325   -0.3195    0.0000 C   0  0  0  0  0  0  0  0  0  0  0  0
    8.9836   -0.3195    0.0000 C   0  0  0  0  0  0  0  0  0  0  0  0
   11.9930   -2.2876    0.0000 C   0  0  0  0  0  0  0  0  0  0  0  0
    9.6231   -2.2876    0.0000 C   0  0  0  0  0  0  0  0  0  0  0  0
   17.8554    1.6630    0.0000 C   0  0  0  0  0  0  0  0  0  0  0  0
    3.0273   -1.7226    0.0000 C   0  0  0  0  0  0  0  0  0  0  0  0
   10.9891    1.7586    0.0000 C   0  0  0  0  0  0  0  0  0  0  0  0
   13.3354   -1.0882    0.0000 C   0  0  0  0  0  0  0  0  0  0  0  0
    8.2807   -1.0882    0.0000 C   0  0  0  0  0  0  0  0  0  0  0  0
   13.0135   -2.0789    0.0000 C   0  0  0  0  0  0  0  0  0  0  0  0
    8.6026   -2.0789    0.0000 C   0  0  0  0  0  0  0  0  0  0  0  0
   15.2901   -0.6648    0.0000 C   0  0  0  0  0  0  0  0  0  0  0  0
    6.3260   -0.6648    0.0000 C   0  0  0  0  0  0  0  0  0  0  0  0
   14.3127   -0.8765    0.0000 C   0  0  0  0  0  0  0  0  0  0  0  0
    7.3033   -0.8765    0.0000 C   0  0  0  0  0  0  0  0  0  0  0  0
   18.5227   -0.8508    0.0000 H   0  0  0  0  0  0  0  0  0  0  0  0
    3.4600    0.8420    0.0000 H   0  0  0  0  0  0  0  0  0  0  0  0
   18.4114    0.5606    0.0000 H   0  0  0  0  0  0  0  0  0  0  0  0
    2.9773   -0.4890    0.0000 H   0  0  0  0  0  0  0  0  0  0  0  0
   17.3560   -1.6529    0.0000 H   0  0  0  0  0  0  0  0  0  0  0  0
    5.6492    0.3678    0.0000 H   0  0  0  0  0  0  0  0  0  0  0  0
   17.1335    1.1699    0.0000 H   0  0  0  0  0  0  0  0  0  0  0  0
    3.8886   -1.5724    0.0000 H   0  0  0  0  0  0  0  0  0  0  0  0
   11.8265    0.3990    0.0000 H   0  0  0  0  0  0  0  0  0  0  0  0
   11.9098    1.1917    0.0000 H   0  0  0  0  0  0  0  0  0  0  0  0
   15.8508    0.0060    0.0000 H   0  0  0  0  0  0  0  0  0  0  0  0
    5.5380   -1.0436    0.0000 H   0  0  0  0  0  0  0  0  0  0  0  0
   12.8172    0.2723    0.0000 H   0  0  0  0  0  0  0  0  0  0  0  0
    8.7988    0.2723    0.0000 H   0  0  0  0  0  0  0  0  0  0  0  0
   11.7946   -2.8750    0.0000 H   0  0  0  0  0  0  0  0  0  0  0  0
    9.8214   -2.8750    0.0000 H   0  0  0  0  0  0  0  0  0  0  0  0
   18.4040    1.3740    0.0000 H   0  0  0  0  0  0  0  0  0  0  0  0
   18.2353    2.1530    0.0000 H   0  0  0  0  0  0  0  0  0  0  0  0
    2.6475   -1.2326    0.0000 H   0  0  0  0  0  0  0  0  0  0  0  0
    2.4788   -2.0116    0.0000 H   0  0  0  0  0  0  0  0  0  0  0  0
   10.5584    2.2046    0.0000 H   0  0  0  0  0  0  0  0  0  0  0  0
   10.4751    1.4119    0.0000 H   0  0  0  0  0  0  0  0  0  0  0  0
    9.6036    0.7802    0.0000 H   0  0  0  0  0  0  0  0  0  0  0  0
   13.4266   -2.5412    0.0000 H   0  0  0  0  0  0  0  0  0  0  0  0
    8.1895   -2.5412    0.0000 H   0  0  0  0  0  0  0  0  0  0  0  0
   19.1947   -1.5914    0.0000 H   0  0  0  0  0  0  0  0  0  0  0  0
    3.1547    1.7942    0.0000 H   0  0  0  0  0  0  0  0  0  0  0  0
   19.3887    0.7723    0.0000 H   0  0  0  0  0  0  0  0  0  0  0  0
    2.0000   -0.2773    0.0000 H   0  0  0  0  0  0  0  0  0  0  0  0
   17.0507   -2.6051    0.0000 H   0  0  0  0  0  0  0  0  0  0  0  0
    5.5260    1.8300    0.0000 H   0  0  0  0  0  0  0  0  0  0  0  0
   17.3728    2.9940    0.0000 H   0  0  0  0  0  0  0  0  0  0  0  0
    2.9160   -3.1340    0.0000 H   0  0  0  0  0  0  0  0  0  0  0  0
   11.3247    3.1340    0.0000 H   0  0  0  0  0  0  0  0  0  0  0  0
  1 24  1  0  0  0  0
  1 27  1  0  0  0  0
  2 25  1  0  0  0  0
  2 28  1  0  0  0  0
  3 13  1  0  0  0  0
  3 66  1  0  0  0  0
 16  4  1  6  0  0  0
  4 69  1  0  0  0  0
 17  5  1  6  0  0  0
  5 70  1  0  0  0  0
 18  6  1  1  0  0  0
  6 71  1  0  0  0  0
 19  7  1  1  0  0  0
  7 72  1  0  0  0  0
 20  8  1  6  0  0  0
  8 73  1  0  0  0  0
 21  9  1  6  0  0  0
  9 74  1  0  0  0  0
 10 33  1  0  0  0  0
 10 75  1  0  0  0  0
 11 34  1  0  0  0  0
 11 76  1  0  0  0  0
 12 35  1  0  0  0  0
 12 77  1  0  0  0  0
 13 14  1  0  0  0  0
 13 15  1  0  0  0  0
 13 26  1  0  0  0  0
 14 22  2  0  0  0  0
 14 29  1  0  0  0  0
 15 23  2  0  0  0  0
 15 30  1  0  0  0  0
 16 18  1  0  0  0  0
 16 20  1  0  0  0  0
 16 44  1  0  0  0  0
 17 19  1  0  0  0  0
 17 21  1  0  0  0  0
 17 45  1  0  0  0  0
 18 24  1  0  0  0  0
 18 46  1  0  0  0  0
 19 25  1  0  0  0  0
 19 47  1  0  0  0  0
 20 27  1  0  0  0  0
 20 48  1  0  0  0  0
 21 28  1  0  0  0  0
 21 49  1  0  0  0  0
 22 23  1  0  0  0  0
 22 31  1  0  0  0  0
 23 32  1  0  0  0  0
 24 33  1  6  0  0  0
 24 50  1  0  0  0  0
 25 34  1  6  0  0  0
 25 51  1  0  0  0  0
 26 35  1  0  0  0  0
 26 52  1  0  0  0  0
 26 53  1  0  0  0  0
 27 40  1  1  0  0  0
 27 54  1  0  0  0  0
 28 41  1  1  0  0  0
 28 55  1  0  0  0  0
 29 36  2  0  0  0  0
 29 56  1  0  0  0  0
 30 37  2  0  0  0  0
 30 57  1  0  0  0  0
 31 38  2  0  0  0  0
 31 58  1  0  0  0  0
 32 39  2  0  0  0  0
 32 59  1  0  0  0  0
 33 60  1  0  0  0  0
 33 61  1  0  0  0  0
 34 62  1  0  0  0  0
 34 63  1  0  0  0  0
 35 64  1  0  0  0  0
 35 65  1  0  0  0  0
 36 38  1  0  0  0  0
 36 42  1  0  0  0  0
 37 39  1  0  0  0  0
 37 43  1  0  0  0  0
 38 67  1  0  0  0  0
 39 68  1  0  0  0  0
 40 42  3  0  0  0  0
 41 43  3  0  0  0  0
M  END
> <PUBCHEM_COMPOUND_CID>
90251174

> <PUBCHEM_COMPOUND_CANONICALIZED>
1

> <PUBCHEM_CACTVS_COMPLEXITY>
1030

> <PUBCHEM_CACTVS_HBOND_ACCEPTOR>
12

> <PUBCHEM_CACTVS_HBOND_DONOR>
10

> <PUBCHEM_CACTVS_ROTATABLE_BOND>
6

> <PUBCHEM_CACTVS_SUBSKEYS>
AAADcfB4PAAAAAAAAAAAAAAAAAAAAYAAAAA0aIEAAAAAAGABQAAAGgAACAAADFSgmAIwAIAABgDAEiBCAAgCAAAgAAAIiAAACIgJNiKAERCCcAAlwAELmAfA4PQOwAACAAAQAACAAAQAACAAAYAADAAAAA==

> <PUBCHEM_IUPAC_OPENEYE_NAME>
(2R,3S,4R,5S,6R)-2-[2-[9-hydroxy-9-(2-hydroxyethyl)-7-[2-[(2R,3S,4R,5S,6R)-3,4,5-trihydroxy-6-(hydroxymethyl)tetrahydropyran-2-yl]ethynyl]fluoren-2-yl]ethynyl]-6-(hydroxymethyl)tetrahydropyran-3,4,5-triol

> <PUBCHEM_IUPAC_CAS_NAME>
(2R,3S,4R,5S,6R)-2-[2-[9-hydroxy-9-(2-hydroxyethyl)-7-[2-[(2R,3S,4R,5S,6R)-3,4,5-trihydroxy-6-(hydroxymethyl)-2-oxanyl]ethynyl]-2-fluorenyl]ethynyl]-6-(hydroxymethyl)oxane-3,4,5-triol

> <PUBCHEM_IUPAC_NAME_MARKUP>
(2<I>R</I>,3<I>S</I>,4<I>R</I>,5<I>S</I>,6<I>R</I>)-2-[2-[9-hydroxy-9-(2-hydroxyethyl)-7-[2-[(2<I>R</I>,3<I>S</I>,4<I>R</I>,5<I>S</I>,6<I>R</I>)-3,4,5-trihydroxy-6-(hydroxymethyl)oxan-2-yl]ethynyl]fluoren-2-yl]ethynyl]-6-(hydroxymethyl)oxane-3,4,5-triol

> <PUBCHEM_IUPAC_NAME>
(2R,3S,4R,5S,6R)-2-[2-[9-hydroxy-9-(2-hydroxyethyl)-7-[2-[(2R,3S,4R,5S,6R)-3,4,5-trihydroxy-6-(hydroxymethyl)oxan-2-yl]ethynyl]fluoren-2-yl]ethynyl]-6-(hydroxymethyl)oxane-3,4,5-triol

> <PUBCHEM_IUPAC_SYSTEMATIC_NAME>
(2R,3S,4R,5S,6R)-2-[2-[9-(2-hydroxyethyl)-7-[2-[(2R,3S,4R,5S,6R)-6-(hydroxymethyl)-3,4,5-tris(oxidanyl)oxan-2-yl]ethynyl]-9-oxidanyl-fluoren-2-yl]ethynyl]-6-(hydroxymethyl)oxane-3,4,5-triol

> <PUBCHEM_IUPAC_TRADITIONAL_NAME>
(2R,3S,4R,5S,6R)-2-[2-[9-hydroxy-9-(2-hydroxyethyl)-7-[2-[(2R,3S,4R,5S,6R)-3,4,5-trihydroxy-6-methylol-tetrahydropyran-2-yl]ethynyl]fluoren-2-yl]ethynyl]-6-methylol-tetrahydropyran-3,4,5-triol

> <PUBCHEM_IUPAC_INCHI>
InChI=1S/C31H34O12/c32-10-9-31(41)19-11-15(3-7-21-25(35)29(39)27(37)23(13-33)42-21)1-5-17(19)18-6-2-16(12-20(18)31)4-8-22-26(36)30(40)28(38)24(14-34)43-22/h1-2,5-6,11-12,21-30,32-41H,9-10,13-14H2/t21-,22-,23-,24-,25-,26-,27-,28-,29-,30-/m1/s1

> <PUBCHEM_IUPAC_INCHIKEY>
NDXZTYMTWQLPJE-OPHHTLMESA-N

> <PUBCHEM_XLOGP3_AA>
-1.7

> <PUBCHEM_EXACT_MASS>
598.20502652

> <PUBCHEM_MOLECULAR_FORMULA>
C31H34O12

> <PUBCHEM_MOLECULAR_WEIGHT>
598.6

> <PUBCHEM_OPENEYE_CAN_SMILES>
C1=CC2=C(C=C1C#CC3C(C(C(C(O3)CO)O)O)O)C(C4=C2C=CC(=C4)C#CC5C(C(C(C(O5)CO)O)O)O)(CCO)O

> <PUBCHEM_OPENEYE_ISO_SMILES>
C1=CC2=C(C=C1C#C[C@@H]3[C@H]([C@H]([C@@H]([C@H](O3)CO)O)O)O)C(C4=C2C=CC(=C4)C#C[C@@H]5[C@H]([C@H]([C@@H]([C@H](O5)CO)O)O)O)(CCO)O

> <PUBCHEM_CACTVS_TPSA>
221

> <PUBCHEM_MONOISOTOPIC_WEIGHT>
598.20502652

> <PUBCHEM_TOTAL_CHARGE>
0

> <PUBCHEM_HEAVY_ATOM_COUNT>
43

> <PUBCHEM_ATOM_DEF_STEREO_COUNT>
10

> <PUBCHEM_ATOM_UDEF_STEREO_COUNT>
0

> <PUBCHEM_BOND_DEF_STEREO_COUNT>
0

> <PUBCHEM_BOND_UDEF_STEREO_COUNT>
0

> <PUBCHEM_ISOTOPIC_ATOM_COUNT>
0

> <PUBCHEM_COMPONENT_COUNT>
1

> <PUBCHEM_CACTVS_TAUTO_COUNT>
-1

> <PUBCHEM_COORDINATE_TYPE>
1
5
255

> <PUBCHEM_BONDANNOTATIONS>
14  22  8
14  29  8
15  23  8
15  30  8
22  31  8
23  32  8
24  33  6
25  34  6
27  40  5
28  41  5
29  36  8
30  37  8
31  38  8
32  39  8
36  38  8
37  39  8
16  4  6
17  5  6
18  6  5
19  7  5
20  8  6
21  9  6

$$$$
