 
  -OEChem-10192103302D

 68 70  0     1  0  0  0  0  0999 V2000
    5.8275   -0.6073    0.0000 P   0  3  0  0  0  0  0  0  0  0  0  0
    7.3355    2.5654    0.0000 O   0  0  0  0  0  0  0  0  0  0  0  0
    9.8752    2.0698    0.0000 O   0  0  0  0  0  0  0  0  0  0  0  0
    8.5995    0.3076    0.0000 O   0  0  0  0  0  0  0  0  0  0  0  0
    6.6355   -0.0181    0.0000 O   0  0  0  0  0  0  0  0  0  0  0  0
    4.9132   -0.2021    0.0000 O   0  0  0  0  0  0  0  0  0  0  0  0
    4.4240   -3.7743    0.0000 O   0  0  0  0  0  0  0  0  0  0  0  0
    6.1462   -3.5903    0.0000 O   0  0  0  0  0  0  0  0  0  0  0  0
    7.0292    4.1314    0.0000 N   0  0  0  0  0  0  0  0  0  0  0  0
    6.1631    3.6314    0.0000 N   0  0  0  0  0  0  0  0  0  0  0  0
    5.2971    5.1314    0.0000 N   0  0  0  0  0  0  0  0  0  0  0  0
   10.9225    2.6550    0.0000 N   0  0  0  0  0  0  0  0  0  0  0  0
    6.1631    6.6314    0.0000 N   0  0  0  0  0  0  0  0  0  0  0  0
    5.9337   -1.6016    0.0000 N   0  0  0  0  0  0  0  0  0  0  0  0
    8.2860    2.8761    0.0000 C   0  0  2  0  0  0  0  0  0  0  0  0
    8.8752    2.0681    0.0000 C   0  0  1  0  0  0  0  0  0  0  0  0
    8.2888    1.2581    0.0000 C   0  0  1  0  0  0  0  0  0  0  0  0
    7.3372    1.5654    0.0000 C   0  0  1  0  0  0  0  0  0  0  0  0
    7.9754    3.8266    0.0000 C   0  0  0  0  0  0  0  0  0  0  0  0
    9.0940    3.4653    0.0000 C   0  0  0  0  0  0  0  0  0  0  0  0
    6.5292    0.9763    0.0000 C   0  0  0  0  0  0  0  0  0  0  0  0
    8.5590    4.6314    0.0000 C   0  0  0  0  0  0  0  0  0  0  0  0
    7.0292    5.1314    0.0000 C   0  0  0  0  0  0  0  0  0  0  0  0
    7.9754    5.4361    0.0000 C   0  0  0  0  0  0  0  0  0  0  0  0
   10.0083    3.0601    0.0000 C   0  0  0  0  0  0  0  0  0  0  0  0
    6.1631    5.6314    0.0000 C   0  0  0  0  0  0  0  0  0  0  0  0
    5.2971    4.1314    0.0000 C   0  0  0  0  0  0  0  0  0  0  0  0
    3.7222   -5.3578    0.0000 C   0  0  0  0  0  0  0  0  0  0  0  0
    5.1258   -2.1908    0.0000 C   0  0  2  0  0  0  0  0  0  0  0  0
    3.8285   -6.3522    0.0000 C   0  0  0  0  0  0  0  0  0  0  0  0
    2.8080   -4.9527    0.0000 C   0  0  0  0  0  0  0  0  0  0  0  0
    4.5302   -4.7686    0.0000 C   0  0  0  0  0  0  0  0  0  0  0  0
    5.2320   -3.1851    0.0000 C   0  0  0  0  0  0  0  0  0  0  0  0
    4.2115   -1.7856    0.0000 C   0  0  0  0  0  0  0  0  0  0  0  0
    3.0205   -6.9414    0.0000 C   0  0  0  0  0  0  0  0  0  0  0  0
    2.0000   -5.5419    0.0000 C   0  0  0  0  0  0  0  0  0  0  0  0
    9.1557    2.6210    0.0000 H   0  0  0  0  0  0  0  0  0  0  0  0
    8.9014    1.1622    0.0000 H   0  0  0  0  0  0  0  0  0  0  0  0
    6.7843    1.8460    0.0000 H   0  0  0  0  0  0  0  0  0  0  0  0
    9.4398    3.9799    0.0000 H   0  0  0  0  0  0  0  0  0  0  0  0
    8.6473    3.8952    0.0000 H   0  0  0  0  0  0  0  0  0  0  0  0
    6.2565    1.5330    0.0000 H   0  0  0  0  0  0  0  0  0  0  0  0
    5.9336    0.8043    0.0000 H   0  0  0  0  0  0  0  0  0  0  0  0
    9.1790    4.6314    0.0000 H   0  0  0  0  0  0  0  0  0  0  0  0
   10.1861    1.5334    0.0000 H   0  0  0  0  0  0  0  0  0  0  0  0
    9.2062    0.1797    0.0000 H   0  0  0  0  0  0  0  0  0  0  0  0
    8.1680    6.0254    0.0000 H   0  0  0  0  0  0  0  0  0  0  0  0
    4.7602    3.8214    0.0000 H   0  0  0  0  0  0  0  0  0  0  0  0
    3.6564   -4.7413    0.0000 H   0  0  0  0  0  0  0  0  0  0  0  0
    5.6262    6.9414    0.0000 H   0  0  0  0  0  0  0  0  0  0  0  0
    6.7001    6.9414    0.0000 H   0  0  0  0  0  0  0  0  0  0  0  0
    6.5006   -1.8528    0.0000 H   0  0  0  0  0  0  0  0  0  0  0  0
    5.6926   -2.4420    0.0000 H   0  0  0  0  0  0  0  0  0  0  0  0
    4.1012   -6.9090    0.0000 H   0  0  0  0  0  0  0  0  0  0  0  0
    4.4242   -6.1802    0.0000 H   0  0  0  0  0  0  0  0  0  0  0  0
    3.1538   -4.4381    0.0000 H   0  0  0  0  0  0  0  0  0  0  0  0
    2.3613   -4.5228    0.0000 H   0  0  0  0  0  0  0  0  0  0  0  0
    4.8030   -5.3254    0.0000 H   0  0  0  0  0  0  0  0  0  0  0  0
    5.1259   -4.5967    0.0000 H   0  0  0  0  0  0  0  0  0  0  0  0
    2.6552   -6.4404    0.0000 H   0  0  0  0  0  0  0  0  0  0  0  0
    2.5195   -7.3066    0.0000 H   0  0  0  0  0  0  0  0  0  0  0  0
    3.3858   -7.4423    0.0000 H   0  0  0  0  0  0  0  0  0  0  0  0
    1.6347   -5.0409    0.0000 H   0  0  0  0  0  0  0  0  0  0  0  0
    1.4990   -5.9072    0.0000 H   0  0  0  0  0  0  0  0  0  0  0  0
    2.3653   -6.0428    0.0000 H   0  0  0  0  0  0  0  0  0  0  0  0
    4.4627   -1.2188    0.0000 H   0  0  0  0  0  0  0  0  0  0  0  0
    3.6447   -1.5344    0.0000 H   0  0  0  0  0  0  0  0  0  0  0  0
    3.9603   -2.3525    0.0000 H   0  0  0  0  0  0  0  0  0  0  0  0
  1  5  1  0  0  0  0
  1  6  2  0  0  0  0
  1 14  1  0  0  0  0
  2 15  1  0  0  0  0
  2 18  1  0  0  0  0
 16  3  1  6  0  0  0
  3 45  1  0  0  0  0
 17  4  1  6  0  0  0
  4 46  1  0  0  0  0
  5 21  1  0  0  0  0
  7 32  1  0  0  0  0
  7 33  1  0  0  0  0
  8 33  2  0  0  0  0
  9 10  1  0  0  0  0
  9 19  1  0  0  0  0
  9 23  1  0  0  0  0
 10 27  2  0  0  0  0
 11 26  2  0  0  0  0
 11 27  1  0  0  0  0
 12 25  3  0  0  0  0
 13 26  1  0  0  0  0
 13 50  1  0  0  0  0
 13 51  1  0  0  0  0
 29 14  1  6  0  0  0
 14 52  1  0  0  0  0
 15 16  1  0  0  0  0
 15 19  1  0  0  0  0
 15 20  1  6  0  0  0
 16 17  1  0  0  0  0
 16 37  1  0  0  0  0
 17 18  1  0  0  0  0
 17 38  1  0  0  0  0
 18 21  1  1  0  0  0
 18 39  1  0  0  0  0
 19 22  2  0  0  0  0
 20 25  1  0  0  0  0
 20 40  1  0  0  0  0
 20 41  1  0  0  0  0
 21 42  1  0  0  0  0
 21 43  1  0  0  0  0
 22 24  1  0  0  0  0
 22 44  1  0  0  0  0
 23 24  2  0  0  0  0
 23 26  1  0  0  0  0
 24 47  1  0  0  0  0
 27 48  1  0  0  0  0
 28 30  1  0  0  0  0
 28 31  1  0  0  0  0
 28 32  1  0  0  0  0
 28 49  1  0  0  0  0
 29 33  1  0  0  0  0
 29 34  1  0  0  0  0
 29 53  1  0  0  0  0
 30 35  1  0  0  0  0
 30 54  1  0  0  0  0
 30 55  1  0  0  0  0
 31 36  1  0  0  0  0
 31 56  1  0  0  0  0
 31 57  1  0  0  0  0
 32 58  1  0  0  0  0
 32 59  1  0  0  0  0
 34 66  1  0  0  0  0
 34 67  1  0  0  0  0
 34 68  1  0  0  0  0
 35 60  1  0  0  0  0
 35 61  1  0  0  0  0
 35 62  1  0  0  0  0
 36 63  1  0  0  0  0
 36 64  1  0  0  0  0
 36 65  1  0  0  0  0
M  CHG  1   1   1
M  END
> <PUBCHEM_COMPOUND_CID>
134443538

> <PUBCHEM_COMPOUND_CANONICALIZED>
1

> <PUBCHEM_CACTVS_COMPLEXITY>
826

> <PUBCHEM_CACTVS_HBOND_ACCEPTOR>
12

> <PUBCHEM_CACTVS_HBOND_DONOR>
4

> <PUBCHEM_CACTVS_ROTATABLE_BOND>
13

> <PUBCHEM_CACTVS_SUBSKEYS>
AAADcfB7uAIAAAAAAAAAAAAAAAAAAWJAAAAsAAAAAAAAAFgB4AAAHgAYiCAADXzhlgY3+LZIFxC6RSbzbISShC8xkqAd2KG4fJiL/uLAuJmX8Ahn2APb6C/w8PcOAAAAAAAAAAAAAAAAAAAAAAAAAAAAAA==

> <PUBCHEM_IUPAC_OPENEYE_NAME>
[(2R,3S,4R,5S)-5-(4-aminopyrrolo[2,1-f][1,2,4]triazin-7-yl)-5-(cyanomethyl)-3,4-dihydroxy-tetrahydrofuran-2-yl]methoxy-[[(1S)-2-(2-ethylbutoxy)-1-methyl-2-oxo-ethyl]amino]-oxo-phosphonium

> <PUBCHEM_IUPAC_CAS_NAME>
[(2R,3S,4R,5S)-5-(4-amino-7-pyrrolo[2,1-f][1,2,4]triazinyl)-5-(cyanomethyl)-3,4-dihydroxy-2-oxolanyl]methoxy-[[(2S)-1-(2-ethylbutoxy)-1-oxopropan-2-yl]amino]-oxophosphonium

> <PUBCHEM_IUPAC_NAME_MARKUP>
[(2<I>R</I>,3<I>S</I>,4<I>R</I>,5<I>S</I>)-5-(4-aminopyrrolo[2,1-f][1,2,4]triazin-7-yl)-5-(cyanomethyl)-3,4-dihydroxyoxolan-2-yl]methoxy-[[(2<I>S</I>)-1-(2-ethylbutoxy)-1-oxopropan-2-yl]amino]-oxophosphanium

> <PUBCHEM_IUPAC_NAME>
[(2R,3S,4R,5S)-5-(4-aminopyrrolo[2,1-f][1,2,4]triazin-7-yl)-5-(cyanomethyl)-3,4-dihydroxyoxolan-2-yl]methoxy-[[(2S)-1-(2-ethylbutoxy)-1-oxopropan-2-yl]amino]-oxophosphanium

> <PUBCHEM_IUPAC_SYSTEMATIC_NAME>
[(2R,3S,4R,5S)-5-(4-azanylpyrrolo[2,1-f][1,2,4]triazin-7-yl)-5-(cyanomethyl)-3,4-bis(oxidanyl)oxolan-2-yl]methoxy-[[(2S)-1-(2-ethylbutoxy)-1-oxidanylidene-propan-2-yl]amino]-oxidanylidene-phosphanium

> <PUBCHEM_IUPAC_TRADITIONAL_NAME>
[(2R,3S,4R,5S)-5-(4-aminopyrrolo[2,1-f][1,2,4]triazin-7-yl)-5-(cyanomethyl)-3,4-dihydroxy-tetrahydrofuran-2-yl]methoxy-[[(1S)-2-(2-ethylbutoxy)-2-keto-1-methyl-ethyl]amino]-keto-phosphonium

> <PUBCHEM_IUPAC_INCHI>
InChI=1S/C22H32N6O7P/c1-4-14(5-2)10-33-21(31)13(3)27-36(32)34-11-16-18(29)19(30)22(35-16,8-9-23)17-7-6-15-20(24)25-12-26-28(15)17/h6-7,12-14,16,18-19,29-30H,4-5,8,10-11H2,1-3H3,(H,27,32)(H2,24,25,26)/q+1/t13-,16+,18+,19+,22-/m0/s1

> <PUBCHEM_IUPAC_INCHIKEY>
FUUAZNXJBNWIGH-ZUQWUQHMSA-N

> <PUBCHEM_XLOGP3_AA>
0

> <PUBCHEM_EXACT_MASS>
523.20700938

> <PUBCHEM_MOLECULAR_FORMULA>
C22H32N6O7P+

> <PUBCHEM_MOLECULAR_WEIGHT>
523.5

> <PUBCHEM_OPENEYE_CAN_SMILES>
CCC(CC)COC(=O)C(C)N[P+](=O)OCC1C(C(C(O1)(CC#N)C2=CC=C3N2N=CN=C3N)O)O

> <PUBCHEM_OPENEYE_ISO_SMILES>
CCC(CC)COC(=O)[C@H](C)N[P+](=O)OC[C@@H]1[C@H]([C@H]([C@](O1)(CC#N)C2=CC=C3N2N=CN=C3N)O)O

> <PUBCHEM_CACTVS_TPSA>
194

> <PUBCHEM_MONOISOTOPIC_WEIGHT>
523.20700938

> <PUBCHEM_TOTAL_CHARGE>
1

> <PUBCHEM_HEAVY_ATOM_COUNT>
36

> <PUBCHEM_ATOM_DEF_STEREO_COUNT>
5

> <PUBCHEM_ATOM_UDEF_STEREO_COUNT>
0

> <PUBCHEM_BOND_DEF_STEREO_COUNT>
0

> <PUBCHEM_BOND_UDEF_STEREO_COUNT>
0

> <PUBCHEM_ISOTOPIC_ATOM_COUNT>
0

> <PUBCHEM_COMPONENT_COUNT>
1

> <PUBCHEM_CACTVS_TAUTO_COUNT>
-1

> <PUBCHEM_COORDINATE_TYPE>
1
5
255

> <PUBCHEM_BONDANNOTATIONS>
10  27  8
11  26  8
11  27  8
29  14  6
15  20  6
18  21  5
19  22  8
22  24  8
23  24  8
23  26  8
16  3  6
17  4  6
9  10  8
9  19  8
9  23  8

$$$$
