 
  -OEChem-10192103332D

 65 67  0     1  0  0  0  0  0999 V2000
    7.1962   -0.1227    0.0000 S   0  0  0  0  0  0  0  0  0  0  0  0
    5.4641   -0.1227    0.0000 O   0  0  0  0  0  0  0  0  0  0  0  0
    5.6149    3.1260    0.0000 O   0  0  0  0  0  0  0  0  0  0  0  0
    7.7468    4.6227    0.0000 O   0  0  0  0  0  0  0  0  0  0  0  0
    7.1962   -2.1227    0.0000 O   0  0  0  0  0  0  0  0  0  0  0  0
    8.9562    1.1561    0.0000 O   0  0  0  0  0  0  0  0  0  0  0  0
    5.4641   -3.1227    0.0000 O   0  0  0  0  0  0  0  0  0  0  0  0
    3.7320   -2.1227    0.0000 O   0  0  0  0  0  0  0  0  0  0  0  0
    5.4361    1.1561    0.0000 O   0  0  0  0  0  0  0  0  0  0  0  0
    3.7320    0.8773    0.0000 O   0  0  0  0  0  0  0  0  0  0  0  0
    6.3301   -3.6227    0.0000 O   0  0  0  0  0  0  0  0  0  0  0  0
    9.4915    2.8034    0.0000 O   0  0  0  0  0  0  0  0  0  0  0  0
    3.7320   -3.1227    0.0000 O   0  0  0  0  0  0  0  0  0  0  0  0
    2.8660   -0.6227    0.0000 O   0  0  0  0  0  0  0  0  0  0  0  0
    2.0000    0.8773    0.0000 O   0  0  0  0  0  0  0  0  0  0  0  0
    7.1962    0.8773    0.0000 C   0  0  2  0  0  0  0  0  0  0  0  0
    8.0052    1.4651    0.0000 C   0  0  1  0  0  0  0  0  0  0  0  0
    6.3301   -1.6227    0.0000 C   0  0  2  0  0  0  0  0  0  0  0  0
    5.4641   -2.1227    0.0000 C   0  0  2  0  0  0  0  0  0  0  0  0
    6.3301   -0.6227    0.0000 C   0  0  2  0  0  0  0  0  0  0  0  0
    7.6093    2.9086    0.0000 C   0  0  1  0  0  0  0  0  0  0  0  0
    4.5981   -1.6227    0.0000 C   0  0  1  0  0  0  0  0  0  0  0  0
    4.5981   -0.6227    0.0000 C   0  0  1  0  0  0  0  0  0  0  0  0
    6.7902    3.4821    0.0000 C   0  0  1  0  0  0  0  0  0  0  0  0
    6.3871    1.4651    0.0000 C   0  0  0  0  0  0  0  0  0  0  0  0
    8.5659    4.0491    0.0000 C   0  0  0  0  0  0  0  0  0  0  0  0
    3.7320   -0.1227    0.0000 C   0  0  0  0  0  0  0  0  0  0  0  0
    7.1962   -3.1227    0.0000 C   0  0  0  0  0  0  0  0  0  0  0  0
    9.6994    1.8252    0.0000 C   0  0  0  0  0  0  0  0  0  0  0  0
    4.5981   -3.6227    0.0000 C   0  0  0  0  0  0  0  0  0  0  0  0
    2.8660   -1.6227    0.0000 C   0  0  0  0  0  0  0  0  0  0  0  0
    8.0622   -3.6227    0.0000 C   0  0  0  0  0  0  0  0  0  0  0  0
   10.6504    1.5162    0.0000 C   0  0  0  0  0  0  0  0  0  0  0  0
    4.5981   -4.6227    0.0000 C   0  0  0  0  0  0  0  0  0  0  0  0
    2.0000   -2.1227    0.0000 C   0  0  0  0  0  0  0  0  0  0  0  0
    2.8660    1.3773    0.0000 C   0  0  0  0  0  0  0  0  0  0  0  0
    2.8660    2.3773    0.0000 C   0  0  0  0  0  0  0  0  0  0  0  0
    7.7486    0.5958    0.0000 H   0  0  0  0  0  0  0  0  0  0  0  0
    8.1022    0.8527    0.0000 H   0  0  0  0  0  0  0  0  0  0  0  0
    6.3301   -2.2427    0.0000 H   0  0  0  0  0  0  0  0  0  0  0  0
    4.9272   -2.4327    0.0000 H   0  0  0  0  0  0  0  0  0  0  0  0
    6.8671   -0.9327    0.0000 H   0  0  0  0  0  0  0  0  0  0  0  0
    8.3056    2.4210    0.0000 H   0  0  0  0  0  0  0  0  0  0  0  0
    4.5981   -2.2427    0.0000 H   0  0  0  0  0  0  0  0  0  0  0  0
    4.5981   -0.0027    0.0000 H   0  0  0  0  0  0  0  0  0  0  0  0
    6.0939    3.9697    0.0000 H   0  0  0  0  0  0  0  0  0  0  0  0
    9.0523    3.6646    0.0000 H   0  0  0  0  0  0  0  0  0  0  0  0
    8.9361    4.5464    0.0000 H   0  0  0  0  0  0  0  0  0  0  0  0
    3.1215   -0.0150    0.0000 H   0  0  0  0  0  0  0  0  0  0  0  0
    3.5200   -0.7053    0.0000 H   0  0  0  0  0  0  0  0  0  0  0  0
    7.7522   -4.1596    0.0000 H   0  0  0  0  0  0  0  0  0  0  0  0
    8.5991   -3.9327    0.0000 H   0  0  0  0  0  0  0  0  0  0  0  0
    8.3722   -3.0858    0.0000 H   0  0  0  0  0  0  0  0  0  0  0  0
    3.9781   -4.6227    0.0000 H   0  0  0  0  0  0  0  0  0  0  0  0
    4.5981   -5.2427    0.0000 H   0  0  0  0  0  0  0  0  0  0  0  0
    5.2181   -4.6227    0.0000 H   0  0  0  0  0  0  0  0  0  0  0  0
   10.4588    0.9265    0.0000 H   0  0  0  0  0  0  0  0  0  0  0  0
   11.2401    1.3246    0.0000 H   0  0  0  0  0  0  0  0  0  0  0  0
   10.8420    2.1059    0.0000 H   0  0  0  0  0  0  0  0  0  0  0  0
    1.6900   -1.5858    0.0000 H   0  0  0  0  0  0  0  0  0  0  0  0
    1.4631   -2.4327    0.0000 H   0  0  0  0  0  0  0  0  0  0  0  0
    2.3100   -2.6596    0.0000 H   0  0  0  0  0  0  0  0  0  0  0  0
    3.4860    2.3773    0.0000 H   0  0  0  0  0  0  0  0  0  0  0  0
    2.8660    2.9973    0.0000 H   0  0  0  0  0  0  0  0  0  0  0  0
    2.2460    2.3773    0.0000 H   0  0  0  0  0  0  0  0  0  0  0  0
 16  1  1  1  0  0  0
 20  1  1  1  0  0  0
  2 20  1  0  0  0  0
  2 23  1  0  0  0  0
  3 21  1  0  0  0  0
  3 24  1  0  0  0  0
  4 24  1  0  0  0  0
  4 26  1  0  0  0  0
 18  5  1  6  0  0  0
  5 28  1  0  0  0  0
 17  6  1  1  0  0  0
  6 29  1  0  0  0  0
 19  7  1  1  0  0  0
  7 30  1  0  0  0  0
 22  8  1  6  0  0  0
  8 31  1  0  0  0  0
  9 25  2  0  0  0  0
 10 27  1  0  0  0  0
 10 36  1  0  0  0  0
 11 28  2  0  0  0  0
 12 29  2  0  0  0  0
 13 30  2  0  0  0  0
 14 31  2  0  0  0  0
 15 36  2  0  0  0  0
 16 17  1  0  0  0  0
 16 25  1  0  0  0  0
 16 38  1  0  0  0  0
 17 21  1  0  0  0  0
 17 39  1  0  0  0  0
 18 19  1  0  0  0  0
 18 20  1  0  0  0  0
 18 40  1  0  0  0  0
 19 22  1  0  0  0  0
 19 41  1  0  0  0  0
 20 42  1  0  0  0  0
 21 26  1  0  0  0  0
 21 43  1  1  0  0  0
 22 23  1  0  0  0  0
 22 44  1  0  0  0  0
 23 27  1  1  0  0  0
 23 45  1  0  0  0  0
 24 25  1  0  0  0  0
 24 46  1  6  0  0  0
 26 47  1  0  0  0  0
 26 48  1  0  0  0  0
 27 49  1  0  0  0  0
 27 50  1  0  0  0  0
 28 32  1  0  0  0  0
 29 33  1  0  0  0  0
 30 34  1  0  0  0  0
 31 35  1  0  0  0  0
 32 51  1  0  0  0  0
 32 52  1  0  0  0  0
 32 53  1  0  0  0  0
 33 57  1  0  0  0  0
 33 58  1  0  0  0  0
 33 59  1  0  0  0  0
 34 54  1  0  0  0  0
 34 55  1  0  0  0  0
 34 56  1  0  0  0  0
 35 60  1  0  0  0  0
 35 61  1  0  0  0  0
 35 62  1  0  0  0  0
 36 37  1  0  0  0  0
 37 63  1  0  0  0  0
 37 64  1  0  0  0  0
 37 65  1  0  0  0  0
M  END
> <PUBCHEM_COMPOUND_CID>
11284232

> <PUBCHEM_COMPOUND_CANONICALIZED>
1

> <PUBCHEM_CACTVS_COMPLEXITY>
936

> <PUBCHEM_CACTVS_HBOND_ACCEPTOR>
15

> <PUBCHEM_CACTVS_HBOND_DONOR>
0

> <PUBCHEM_CACTVS_ROTATABLE_BOND>
13

> <PUBCHEM_CACTVS_SUBSKEYS>
AAADceB4PABAAAAAAAAAAAAAAAAAASAAAAAkSAAABIAAAAAAAAAAGgQAAAAACBS0wAOCCAAABAgIAICQCAIAAAAAABAAAAFAAAARABYgAAQiAAAFIAAmAAHKZAwAAAAAAAAAAAAAAAAAAAAAAAAAAAAAAA==

> <PUBCHEM_IUPAC_OPENEYE_NAME>
[(2R,3R,4S,5R,6S)-3,4,5-triacetoxy-6-[[(1R,2R,3R,5R)-2-acetoxy-4-oxo-6,8-dioxabicyclo[3.2.1]octan-3-yl]sulfanyl]tetrahydropyran-2-yl]methyl acetate

> <PUBCHEM_IUPAC_CAS_NAME>
acetic acid [(2R,3R,4S,5R,6S)-3,4,5-triacetyloxy-6-[[(1R,2R,3R,5R)-2-acetyloxy-4-oxo-6,8-dioxabicyclo[3.2.1]octan-3-yl]thio]-2-oxanyl]methyl ester

> <PUBCHEM_IUPAC_NAME_MARKUP>
[(2<I>R</I>,3<I>R</I>,4<I>S</I>,5<I>R</I>,6<I>S</I>)-3,4,5-triacetyloxy-6-[[(1<I>R</I>,2<I>R</I>,3<I>R</I>,5<I>R</I>)-2-acetyloxy-4-oxo-6,8-dioxabicyclo[3.2.1]octan-3-yl]sulfanyl]oxan-2-yl]methyl acetate

> <PUBCHEM_IUPAC_NAME>
[(2R,3R,4S,5R,6S)-3,4,5-triacetyloxy-6-[[(1R,2R,3R,5R)-2-acetyloxy-4-oxo-6,8-dioxabicyclo[3.2.1]octan-3-yl]sulfanyl]oxan-2-yl]methyl acetate

> <PUBCHEM_IUPAC_SYSTEMATIC_NAME>
[(2R,3R,4S,5R,6S)-3,4,5-triacetyloxy-6-[[(1R,2R,3R,5R)-2-acetyloxy-4-oxidanylidene-6,8-dioxabicyclo[3.2.1]octan-3-yl]sulfanyl]oxan-2-yl]methyl ethanoate

> <PUBCHEM_IUPAC_TRADITIONAL_NAME>
acetic acid [(2R,3R,4S,5R,6S)-3,4,5-triacetoxy-6-[[(1R,2R,3R,5R)-2-acetoxy-4-keto-6,8-dioxabicyclo[3.2.1]octan-3-yl]thio]tetrahydropyran-2-yl]methyl ester

> <PUBCHEM_IUPAC_INCHI>
InChI=1S/C22H28O14S/c1-8(23)29-6-13-16(31-9(2)24)18(33-11(4)26)19(34-12(5)27)22(36-13)37-20-15(28)21-30-7-14(35-21)17(20)32-10(3)25/h13-14,16-22H,6-7H2,1-5H3/t13-,14-,16-,17-,18+,19-,20+,21-,22+/m1/s1

> <PUBCHEM_IUPAC_INCHIKEY>
DQDUVTBUAPSYII-LUQRLMJOSA-N

> <PUBCHEM_XLOGP3_AA>
-0.2

> <PUBCHEM_EXACT_MASS>
548.11997674

> <PUBCHEM_MOLECULAR_FORMULA>
C22H28O14S

> <PUBCHEM_MOLECULAR_WEIGHT>
548.5

> <PUBCHEM_OPENEYE_CAN_SMILES>
CC(=O)OCC1C(C(C(C(O1)SC2C(C3COC(C2=O)O3)OC(=O)C)OC(=O)C)OC(=O)C)OC(=O)C

> <PUBCHEM_OPENEYE_ISO_SMILES>
CC(=O)OC[C@@H]1[C@H]([C@@H]([C@H]([C@@H](O1)S[C@@H]2[C@@H]([C@H]3CO[C@@H](C2=O)O3)OC(=O)C)OC(=O)C)OC(=O)C)OC(=O)C

> <PUBCHEM_CACTVS_TPSA>
202

> <PUBCHEM_MONOISOTOPIC_WEIGHT>
548.11997674

> <PUBCHEM_TOTAL_CHARGE>
0

> <PUBCHEM_HEAVY_ATOM_COUNT>
37

> <PUBCHEM_ATOM_DEF_STEREO_COUNT>
9

> <PUBCHEM_ATOM_UDEF_STEREO_COUNT>
0

> <PUBCHEM_BOND_DEF_STEREO_COUNT>
0

> <PUBCHEM_BOND_UDEF_STEREO_COUNT>
0

> <PUBCHEM_ISOTOPIC_ATOM_COUNT>
0

> <PUBCHEM_COMPONENT_COUNT>
1

> <PUBCHEM_CACTVS_TAUTO_COUNT>
-1

> <PUBCHEM_COORDINATE_TYPE>
1
5
255

> <PUBCHEM_BONDANNOTATIONS>
16  1  5
20  1  5
21  43  5
23  27  5
24  46  6
18  5  6
17  6  5
19  7  5
22  8  6

$$$$
