 
  -OEChem-10192104102D

 34 33  0     1  0  0  0  0  0999 V2000
    6.0010    1.6550    0.0000 O   0  0  0  0  0  0  0  0  0  0  0  0
    5.1350    0.1550    0.0000 O   0  0  0  0  0  0  0  0  0  0  0  0
    8.5991    1.1550    0.0000 O   0  0  0  0  0  0  0  0  0  0  0  0
    4.2690    2.6550    0.0000 O   0  0  0  0  0  0  0  0  0  0  0  0
    7.7331   -0.3450    0.0000 O   0  0  0  0  0  0  0  0  0  0  0  0
    2.5369    1.6550    0.0000 O   0  0  0  0  0  0  0  0  0  0  0  0
    6.8671    1.1550    0.0000 C   0  0  3  0  0  0  0  0  0  0  0  0
    7.7331    1.6550    0.0000 C   0  0  1  0  0  0  0  0  0  0  0  0
    5.1350    1.1550    0.0000 C   0  0  3  0  0  0  0  0  0  0  0  0
    4.2690    1.6550    0.0000 C   0  0  2  0  0  0  0  0  0  0  0  0
    6.8671    0.1550    0.0000 C   0  0  0  0  0  0  0  0  0  0  0  0
    7.7331    2.6550    0.0000 C   0  0  0  0  0  0  0  0  0  0  0  0
    3.4030    1.1550    0.0000 C   0  0  0  0  0  0  0  0  0  0  0  0
    4.2690   -0.3450    0.0000 C   0  0  0  0  0  0  0  0  0  0  0  0
    4.2690   -1.3450    0.0000 C   0  0  0  0  0  0  0  0  0  0  0  0
    4.2690   -2.3450    0.0000 C   0  0  0  0  0  0  0  0  0  0  0  0
    6.3301    0.8450    0.0000 H   0  0  0  0  0  0  0  0  0  0  0  0
    7.7331    1.0350    0.0000 H   0  0  0  0  0  0  0  0  0  0  0  0
    5.1350    1.7750    0.0000 H   0  0  0  0  0  0  0  0  0  0  0  0
    3.7320    1.9650    0.0000 H   0  0  0  0  0  0  0  0  0  0  0  0
    6.2565    0.2627    0.0000 H   0  0  0  0  0  0  0  0  0  0  0  0
    6.6550   -0.4276    0.0000 H   0  0  0  0  0  0  0  0  0  0  0  0
    8.3531    2.6550    0.0000 H   0  0  0  0  0  0  0  0  0  0  0  0
    7.7331    3.2750    0.0000 H   0  0  0  0  0  0  0  0  0  0  0  0
    7.1131    2.6550    0.0000 H   0  0  0  0  0  0  0  0  0  0  0  0
    3.0044    0.6801    0.0000 H   0  0  0  0  0  0  0  0  0  0  0  0
    3.8015    0.6801    0.0000 H   0  0  0  0  0  0  0  0  0  0  0  0
    9.1360    1.4650    0.0000 H   0  0  0  0  0  0  0  0  0  0  0  0
    3.7320    2.9650    0.0000 H   0  0  0  0  0  0  0  0  0  0  0  0
    4.0569    0.2376    0.0000 H   0  0  0  0  0  0  0  0  0  0  0  0
    3.6584   -0.4527    0.0000 H   0  0  0  0  0  0  0  0  0  0  0  0
    7.7331   -0.9650    0.0000 H   0  0  0  0  0  0  0  0  0  0  0  0
    2.0000    1.3450    0.0000 H   0  0  0  0  0  0  0  0  0  0  0  0
    4.2690   -2.9650    0.0000 H   0  0  0  0  0  0  0  0  0  0  0  0
  1  7  1  0  0  0  0
  1  9  1  0  0  0  0
  2  9  1  0  0  0  0
  2 14  1  0  0  0  0
  8  3  1  1  0  0  0
  3 28  1  0  0  0  0
 10  4  1  6  0  0  0
  4 29  1  0  0  0  0
  5 11  1  0  0  0  0
  5 32  1  0  0  0  0
  6 13  1  0  0  0  0
  6 33  1  0  0  0  0
  7  8  1  0  0  0  0
  7 11  1  0  0  0  0
  7 17  1  0  0  0  0
  8 12  1  0  0  0  0
  8 18  1  0  0  0  0
  9 10  1  0  0  0  0
  9 19  1  0  0  0  0
 10 13  1  0  0  0  0
 10 20  1  0  0  0  0
 11 21  1  0  0  0  0
 11 22  1  0  0  0  0
 12 23  1  0  0  0  0
 12 24  1  0  0  0  0
 12 25  1  0  0  0  0
 13 26  1  0  0  0  0
 13 27  1  0  0  0  0
 14 15  1  0  0  0  0
 14 30  1  0  0  0  0
 14 31  1  0  0  0  0
 15 16  3  0  0  0  0
 16 34  1  0  0  0  0
M  END
> <PUBCHEM_COMPOUND_CID>
129169294

> <PUBCHEM_COMPOUND_CANONICALIZED>
1

> <PUBCHEM_CACTVS_COMPLEXITY>
223

> <PUBCHEM_CACTVS_HBOND_ACCEPTOR>
6

> <PUBCHEM_CACTVS_HBOND_DONOR>
4

> <PUBCHEM_CACTVS_ROTATABLE_BOND>
8

> <PUBCHEM_CACTVS_SUBSKEYS>
AAADceBwOAAAAAAAAAAAAAAAAAAAAAAAAAAAAAAAAAAAAAAAAAAAGgAACAAACBSwgAMCCAAABgBAGAAAAAAAAAAAAAAAAAAAAAAREAAAAAAiQAAFAAAHAAAAAAAAAAAAAAAAAAAAAAAAAAAAAAAAAAAAAA==

> <PUBCHEM_IUPAC_OPENEYE_NAME>
(3R)-2-[(2S)-2,3-dihydroxy-1-prop-2-ynoxy-propoxy]butane-1,3-diol

> <PUBCHEM_IUPAC_CAS_NAME>
(3R)-2-[(2S)-2,3-dihydroxy-1-prop-2-ynoxypropoxy]butane-1,3-diol

> <PUBCHEM_IUPAC_NAME_MARKUP>
(3<I>R</I>)-2-[(2<I>S</I>)-2,3-dihydroxy-1-prop-2-ynoxypropoxy]butane-1,3-diol

> <PUBCHEM_IUPAC_NAME>
(3R)-2-[(2S)-2,3-dihydroxy-1-prop-2-ynoxypropoxy]butane-1,3-diol

> <PUBCHEM_IUPAC_SYSTEMATIC_NAME>
(3R)-2-[(2S)-2,3-bis(oxidanyl)-1-prop-2-ynoxy-propoxy]butane-1,3-diol

> <PUBCHEM_IUPAC_TRADITIONAL_NAME>
(3R)-2-[(2S)-2,3-dihydroxy-1-propargyloxy-propoxy]butane-1,3-diol

> <PUBCHEM_IUPAC_INCHI>
InChI=1S/C10H18O6/c1-3-4-15-10(8(14)5-11)16-9(6-12)7(2)13/h1,7-14H,4-6H2,2H3/t7-,8+,9?,10?/m1/s1

> <PUBCHEM_IUPAC_INCHIKEY>
GXSHPLFILBTFCW-XHHQTKHESA-N

> <PUBCHEM_XLOGP3_AA>
-2

> <PUBCHEM_EXACT_MASS>
234.11033829

> <PUBCHEM_MOLECULAR_FORMULA>
C10H18O6

> <PUBCHEM_MOLECULAR_WEIGHT>
234.25

> <PUBCHEM_OPENEYE_CAN_SMILES>
CC(C(CO)OC(C(CO)O)OCC#C)O

> <PUBCHEM_OPENEYE_ISO_SMILES>
C[C@H](C(CO)OC([C@H](CO)O)OCC#C)O

> <PUBCHEM_CACTVS_TPSA>
99.4

> <PUBCHEM_MONOISOTOPIC_WEIGHT>
234.11033829

> <PUBCHEM_TOTAL_CHARGE>
0

> <PUBCHEM_HEAVY_ATOM_COUNT>
16

> <PUBCHEM_ATOM_DEF_STEREO_COUNT>
2

> <PUBCHEM_ATOM_UDEF_STEREO_COUNT>
2

> <PUBCHEM_BOND_DEF_STEREO_COUNT>
0

> <PUBCHEM_BOND_UDEF_STEREO_COUNT>
0

> <PUBCHEM_ISOTOPIC_ATOM_COUNT>
0

> <PUBCHEM_COMPONENT_COUNT>
1

> <PUBCHEM_CACTVS_TAUTO_COUNT>
-1

> <PUBCHEM_COORDINATE_TYPE>
1
5
255

> <PUBCHEM_BONDANNOTATIONS>
9  1  3
8  3  5
10  4  6
7  11  3

$$$$
