 
  -OEChem-10192103452D

 25 25  0     1  0  0  0  0  0999 V2000
    5.0929   -0.6133    0.0000 O   0  0  0  0  0  0  0  0  0  0  0  0
    2.5896    0.3346    0.0000 O   0  0  0  0  0  0  0  0  0  0  0  0
    8.5472    0.0255    0.0000 O   0  0  0  0  0  0  0  0  0  0  0  0
    3.1249   -1.3127    0.0000 O   0  0  0  0  0  0  0  0  0  0  0  0
    7.3882    1.3127    0.0000 O   0  0  0  0  0  0  0  0  0  0  0  0
    5.9019   -0.0255    0.0000 C   0  0  1  0  0  0  0  0  0  0  0  0
    5.5929    0.9255    0.0000 C   0  0  0  0  0  0  0  0  0  0  0  0
    4.5929    0.9255    0.0000 C   0  0  0  0  0  0  0  0  0  0  0  0
    4.2839   -0.0255    0.0000 C   0  0  2  0  0  0  0  0  0  0  0  0
    6.8530   -0.3346    0.0000 C   0  0  1  0  0  0  0  0  0  0  0  0
    7.0609   -1.3127    0.0000 C   0  0  0  0  0  0  0  0  0  0  0  0
    3.3328   -0.3346    0.0000 C   0  0  0  0  0  0  0  0  0  0  0  0
    7.5961    0.3346    0.0000 C   0  0  0  0  0  0  0  0  0  0  0  0
    6.5029    0.5755    0.0000 H   0  0  0  0  0  0  0  0  0  0  0  0
    6.1993    1.0544    0.0000 H   0  0  0  0  0  0  0  0  0  0  0  0
    5.5281    1.5421    0.0000 H   0  0  0  0  0  0  0  0  0  0  0  0
    4.6577    1.5421    0.0000 H   0  0  0  0  0  0  0  0  0  0  0  0
    3.9864    1.0544    0.0000 H   0  0  0  0  0  0  0  0  0  0  0  0
    4.1869   -0.6379    0.0000 H   0  0  0  0  0  0  0  0  0  0  0  0
    6.3922   -0.7494    0.0000 H   0  0  0  0  0  0  0  0  0  0  0  0
    6.4544   -1.4416    0.0000 H   0  0  0  0  0  0  0  0  0  0  0  0
    7.1898   -1.9192    0.0000 H   0  0  0  0  0  0  0  0  0  0  0  0
    7.6673   -1.1838    0.0000 H   0  0  0  0  0  0  0  0  0  0  0  0
    2.0000    0.1430    0.0000 H   0  0  0  0  0  0  0  0  0  0  0  0
    9.0079    0.4404    0.0000 H   0  0  0  0  0  0  0  0  0  0  0  0
  1  6  1  0  0  0  0
  1  9  1  0  0  0  0
  2 12  1  0  0  0  0
  2 24  1  0  0  0  0
  3 13  1  0  0  0  0
  3 25  1  0  0  0  0
  4 12  2  0  0  0  0
  5 13  2  0  0  0  0
  6  7  1  0  0  0  0
  6 10  1  0  0  0  0
  6 14  1  6  0  0  0
  7  8  1  0  0  0  0
  7 15  1  0  0  0  0
  7 16  1  0  0  0  0
  8  9  1  0  0  0  0
  8 17  1  0  0  0  0
  8 18  1  0  0  0  0
  9 12  1  1  0  0  0
  9 19  1  0  0  0  0
 10 11  1  6  0  0  0
 10 13  1  0  0  0  0
 10 20  1  0  0  0  0
 11 21  1  0  0  0  0
 11 22  1  0  0  0  0
 11 23  1  0  0  0  0
M  END
> <PUBCHEM_COMPOUND_CID>
131185766

> <PUBCHEM_COMPOUND_CANONICALIZED>
1

> <PUBCHEM_CACTVS_COMPLEXITY>
225

> <PUBCHEM_CACTVS_HBOND_ACCEPTOR>
5

> <PUBCHEM_CACTVS_HBOND_DONOR>
2

> <PUBCHEM_CACTVS_ROTATABLE_BOND>
3

> <PUBCHEM_CACTVS_SUBSKEYS>
AAADccBwOAAAAAAAAAAAAAAAAAAAASAAAAAAAAAAAAAAAAAAAAAAGgAACAAADRSggAICCAAABgAIAACQCAIAAAAAAAAAAAFAAAABABYAAAQCQAAFIAADAAGI7HTMAAAAAAAAAAAAAAAAAAAAAAAAAAAAAA==

> <PUBCHEM_IUPAC_OPENEYE_NAME>
(2R,5S)-5-[(1R)-1-carboxyethyl]tetrahydrofuran-2-carboxylic acid

> <PUBCHEM_IUPAC_CAS_NAME>
(2R,5S)-5-[(1R)-1-carboxyethyl]-2-oxolanecarboxylic acid

> <PUBCHEM_IUPAC_NAME_MARKUP>
(2<I>R</I>,5<I>S</I>)-5-[(1<I>R</I>)-1-carboxyethyl]oxolane-2-carboxylic acid

> <PUBCHEM_IUPAC_NAME>
(2R,5S)-5-[(1R)-1-carboxyethyl]oxolane-2-carboxylic acid

> <PUBCHEM_IUPAC_SYSTEMATIC_NAME>
(2R,5S)-5-[(2R)-1-oxidanyl-1-oxidanylidene-propan-2-yl]oxolane-2-carboxylic acid

> <PUBCHEM_IUPAC_TRADITIONAL_NAME>
(2R,5S)-5-[(1R)-1-carboxyethyl]tetrahydrofuran-2-carboxylic acid

> <PUBCHEM_IUPAC_INCHI>
InChI=1S/C8H12O5/c1-4(7(9)10)5-2-3-6(13-5)8(11)12/h4-6H,2-3H2,1H3,(H,9,10)(H,11,12)/t4-,5+,6-/m1/s1

> <PUBCHEM_IUPAC_INCHIKEY>
OJXCTGNLYOJITC-NGJCXOISSA-N

> <PUBCHEM_XLOGP3_AA>
0.3

> <PUBCHEM_EXACT_MASS>
188.06847348

> <PUBCHEM_MOLECULAR_FORMULA>
C8H12O5

> <PUBCHEM_MOLECULAR_WEIGHT>
188.18

> <PUBCHEM_OPENEYE_CAN_SMILES>
CC(C1CCC(O1)C(=O)O)C(=O)O

> <PUBCHEM_OPENEYE_ISO_SMILES>
C[C@H]([C@@H]1CC[C@@H](O1)C(=O)O)C(=O)O

> <PUBCHEM_CACTVS_TPSA>
83.8

> <PUBCHEM_MONOISOTOPIC_WEIGHT>
188.06847348

> <PUBCHEM_TOTAL_CHARGE>
0

> <PUBCHEM_HEAVY_ATOM_COUNT>
13

> <PUBCHEM_ATOM_DEF_STEREO_COUNT>
3

> <PUBCHEM_ATOM_UDEF_STEREO_COUNT>
0

> <PUBCHEM_BOND_DEF_STEREO_COUNT>
0

> <PUBCHEM_BOND_UDEF_STEREO_COUNT>
0

> <PUBCHEM_ISOTOPIC_ATOM_COUNT>
0

> <PUBCHEM_COMPONENT_COUNT>
1

> <PUBCHEM_CACTVS_TAUTO_COUNT>
-1

> <PUBCHEM_COORDINATE_TYPE>
1
5
255

> <PUBCHEM_BONDANNOTATIONS>
10  11  6
6  14  6
9  12  5

$$$$
