 
  -OEChem-10192103552D

 84 88  0     1  0  0  0  0  0999 V2000
    2.5357   -2.3223    0.0000 O   0  0  0  0  0  0  0  0  0  0  0  0
    2.5519   -0.2307    0.0000 O   0  0  0  0  0  0  0  0  0  0  0  0
    7.9222    2.8326    0.0000 O   0  0  0  0  0  0  0  0  0  0  0  0
    4.3500   -4.1002    0.0000 O   0  0  0  0  0  0  0  0  0  0  0  0
   11.2187    3.7897    0.0000 O   0  0  0  0  0  0  0  0  0  0  0  0
    9.7088    4.6383    0.0000 O   0  0  0  0  0  0  0  0  0  0  0  0
    7.0628   -0.7699    0.0000 C   0  0  2  0  0  0  0  0  0  0  0  0
    6.1968   -0.2699    0.0000 C   0  0  1  0  0  0  0  0  0  0  0  0
    5.2868   -0.7768    0.0000 C   0  0  2  0  0  0  0  0  0  0  0  0
    7.9288   -0.2699    0.0000 C   0  0  1  0  0  0  0  0  0  0  0  0
    5.2787   -1.8184    0.0000 C   0  0  1  0  0  0  0  0  0  0  0  0
    7.0789   -1.8114    0.0000 C   0  0  0  0  0  0  0  0  0  0  0  0
    7.9288    0.7301    0.0000 C   0  0  0  0  0  0  0  0  0  0  0  0
    6.1808   -2.3392    0.0000 C   0  0  0  0  0  0  0  0  0  0  0  0
    4.3433   -2.3681    0.0000 C   0  0  2  0  0  0  0  0  0  0  0  0
    8.8228    1.2647    0.0000 C   0  0  1  0  0  0  0  0  0  0  0  0
    9.7288    0.7509    0.0000 C   0  0  1  0  0  0  0  0  0  0  0  0
    6.1968    0.7301    0.0000 C   0  0  0  0  0  0  0  0  0  0  0  0
    8.8228   -0.8046    0.0000 C   0  0  0  0  0  0  0  0  0  0  0  0
    4.3599   -0.2127    0.0000 C   0  0  0  0  0  0  0  0  0  0  0  0
    9.7288   -0.2908    0.0000 C   0  0  0  0  0  0  0  0  0  0  0  0
    7.7056   -1.5360    0.0000 C   0  0  0  0  0  0  0  0  0  0  0  0
    3.4037   -1.8256    0.0000 C   0  0  2  0  0  0  0  0  0  0  0  0
    7.0628    1.2301    0.0000 C   0  0  0  0  0  0  0  0  0  0  0  0
    5.2945    0.2232    0.0000 C   0  0  0  0  0  0  0  0  0  0  0  0
    3.4120   -0.7407    0.0000 C   0  0  2  0  0  0  0  0  0  0  0  0
    8.2709   -1.2096    0.0000 C   0  0  0  0  0  0  0  0  0  0  0  0
    8.7977    2.3494    0.0000 C   0  0  1  0  0  0  0  0  0  0  0  0
   10.6726    1.2861    0.0000 C   0  0  0  0  0  0  0  0  0  0  0  0
    9.7288    2.9063    0.0000 C   0  0  1  0  0  0  0  0  0  0  0  0
    3.8467   -3.2361    0.0000 C   0  0  0  0  0  0  0  0  0  0  0  0
   10.6726    2.3711    0.0000 C   0  0  0  0  0  0  0  0  0  0  0  0
    4.8466   -3.2322    0.0000 C   0  0  0  0  0  0  0  0  0  0  0  0
   10.5987    0.2576    0.0000 C   0  0  0  0  0  0  0  0  0  0  0  0
    9.2188    3.7665    0.0000 C   0  0  0  0  0  0  0  0  0  0  0  0
   10.2188    3.7781    0.0000 C   0  0  0  0  0  0  0  0  0  0  0  0
    6.9329    0.1551    0.0000 H   0  0  0  0  0  0  0  0  0  0  0  0
    5.2820   -2.6684    0.0000 H   0  0  0  0  0  0  0  0  0  0  0  0
    7.2969   -2.3918    0.0000 H   0  0  0  0  0  0  0  0  0  0  0  0
    7.6880   -1.6960    0.0000 H   0  0  0  0  0  0  0  0  0  0  0  0
    5.7835   -2.8152    0.0000 H   0  0  0  0  0  0  0  0  0  0  0  0
    6.5818   -2.8121    0.0000 H   0  0  0  0  0  0  0  0  0  0  0  0
    8.0786    1.6754    0.0000 H   0  0  0  0  0  0  0  0  0  0  0  0
    5.9847    1.3127    0.0000 H   0  0  0  0  0  0  0  0  0  0  0  0
    5.5862    0.6224    0.0000 H   0  0  0  0  0  0  0  0  0  0  0  0
    8.4182   -1.2744    0.0000 H   0  0  0  0  0  0  0  0  0  0  0  0
    9.2164   -1.2836    0.0000 H   0  0  0  0  0  0  0  0  0  0  0  0
    4.7681    0.2539    0.0000 H   0  0  0  0  0  0  0  0  0  0  0  0
    3.9700    0.2693    0.0000 H   0  0  0  0  0  0  0  0  0  0  0  0
    9.9379   -0.8744    0.0000 H   0  0  0  0  0  0  0  0  0  0  0  0
   10.3397   -0.1847    0.0000 H   0  0  0  0  0  0  0  0  0  0  0  0
    7.2306   -1.9345    0.0000 H   0  0  0  0  0  0  0  0  0  0  0  0
    8.1041   -2.0109    0.0000 H   0  0  0  0  0  0  0  0  0  0  0  0
    8.1805   -1.1375    0.0000 H   0  0  0  0  0  0  0  0  0  0  0  0
    3.4025   -2.4456    0.0000 H   0  0  0  0  0  0  0  0  0  0  0  0
    7.0628    1.8501    0.0000 H   0  0  0  0  0  0  0  0  0  0  0  0
    5.9145    0.2184    0.0000 H   0  0  0  0  0  0  0  0  0  0  0  0
    5.2993    0.8432    0.0000 H   0  0  0  0  0  0  0  0  0  0  0  0
    4.6745    0.2280    0.0000 H   0  0  0  0  0  0  0  0  0  0  0  0
    2.8722   -1.0455    0.0000 H   0  0  0  0  0  0  0  0  0  0  0  0
    7.6884   -1.4217    0.0000 H   0  0  0  0  0  0  0  0  0  0  0  0
    8.4830   -1.7922    0.0000 H   0  0  0  0  0  0  0  0  0  0  0  0
    8.8535   -0.9975    0.0000 H   0  0  0  0  0  0  0  0  0  0  0  0
    8.2674    2.0281    0.0000 H   0  0  0  0  0  0  0  0  0  0  0  0
   10.8817    0.7024    0.0000 H   0  0  0  0  0  0  0  0  0  0  0  0
   11.2835    1.3922    0.0000 H   0  0  0  0  0  0  0  0  0  0  0  0
    3.3702   -2.8394    0.0000 H   0  0  0  0  0  0  0  0  0  0  0  0
    3.3732   -3.6364    0.0000 H   0  0  0  0  0  0  0  0  0  0  0  0
   11.2835    2.2650    0.0000 H   0  0  0  0  0  0  0  0  0  0  0  0
   10.8817    2.9548    0.0000 H   0  0  0  0  0  0  0  0  0  0  0  0
    4.3109   -3.5443    0.0000 H   0  0  0  0  0  0  0  0  0  0  0  0
    5.1587   -3.7679    0.0000 H   0  0  0  0  0  0  0  0  0  0  0  0
    5.3824   -2.9201    0.0000 H   0  0  0  0  0  0  0  0  0  0  0  0
   10.2928   -0.2817    0.0000 H   0  0  0  0  0  0  0  0  0  0  0  0
   11.1380   -0.0483    0.0000 H   0  0  0  0  0  0  0  0  0  0  0  0
   10.9045    0.7969    0.0000 H   0  0  0  0  0  0  0  0  0  0  0  0
    2.0000   -2.0102    0.0000 H   0  0  0  0  0  0  0  0  0  0  0  0
    9.7522    4.0827    0.0000 H   0  0  0  0  0  0  0  0  0  0  0  0
    8.9027    4.2998    0.0000 H   0  0  0  0  0  0  0  0  0  0  0  0
    8.6855    3.4503    0.0000 H   0  0  0  0  0  0  0  0  0  0  0  0
    2.5590    0.3893    0.0000 H   0  0  0  0  0  0  0  0  0  0  0  0
    7.9102    3.4525    0.0000 H   0  0  0  0  0  0  0  0  0  0  0  0
    4.0421   -4.6383    0.0000 H   0  0  0  0  0  0  0  0  0  0  0  0
   11.5225    4.3301    0.0000 H   0  0  0  0  0  0  0  0  0  0  0  0
 23  1  1  1  0  0  0
  1 77  1  0  0  0  0
 26  2  1  6  0  0  0
  2 81  1  0  0  0  0
 28  3  1  6  0  0  0
  3 82  1  0  0  0  0
  4 31  1  0  0  0  0
  4 83  1  0  0  0  0
  5 36  1  0  0  0  0
  5 84  1  0  0  0  0
  6 36  2  0  0  0  0
  7  8  1  0  0  0  0
  7 10  1  0  0  0  0
  7 12  1  0  0  0  0
  7 22  1  1  0  0  0
  8  9  1  0  0  0  0
  8 18  1  0  0  0  0
  8 37  1  6  0  0  0
  9 11  1  0  0  0  0
  9 20  1  0  0  0  0
  9 25  1  1  0  0  0
 10 13  1  0  0  0  0
 10 19  1  0  0  0  0
 10 27  1  6  0  0  0
 11 14  1  0  0  0  0
 11 15  1  0  0  0  0
 11 38  1  6  0  0  0
 12 14  1  0  0  0  0
 12 39  1  0  0  0  0
 12 40  1  0  0  0  0
 13 16  1  0  0  0  0
 13 24  2  0  0  0  0
 14 41  1  0  0  0  0
 14 42  1  0  0  0  0
 15 23  1  0  0  0  0
 15 31  1  0  0  0  0
 15 33  1  6  0  0  0
 16 17  1  0  0  0  0
 16 28  1  0  0  0  0
 16 43  1  1  0  0  0
 17 21  1  0  0  0  0
 17 29  1  0  0  0  0
 17 34  1  1  0  0  0
 18 24  1  0  0  0  0
 18 44  1  0  0  0  0
 18 45  1  0  0  0  0
 19 21  1  0  0  0  0
 19 46  1  0  0  0  0
 19 47  1  0  0  0  0
 20 26  1  0  0  0  0
 20 48  1  0  0  0  0
 20 49  1  0  0  0  0
 21 50  1  0  0  0  0
 21 51  1  0  0  0  0
 22 52  1  0  0  0  0
 22 53  1  0  0  0  0
 22 54  1  0  0  0  0
 23 26  1  0  0  0  0
 23 55  1  0  0  0  0
 24 56  1  0  0  0  0
 25 57  1  0  0  0  0
 25 58  1  0  0  0  0
 25 59  1  0  0  0  0
 26 60  1  0  0  0  0
 27 61  1  0  0  0  0
 27 62  1  0  0  0  0
 27 63  1  0  0  0  0
 28 30  1  0  0  0  0
 28 64  1  0  0  0  0
 29 32  1  0  0  0  0
 29 65  1  0  0  0  0
 29 66  1  0  0  0  0
 30 32  1  0  0  0  0
 30 35  1  6  0  0  0
 30 36  1  0  0  0  0
 31 67  1  0  0  0  0
 31 68  1  0  0  0  0
 32 69  1  0  0  0  0
 32 70  1  0  0  0  0
 33 71  1  0  0  0  0
 33 72  1  0  0  0  0
 33 73  1  0  0  0  0
 34 74  1  0  0  0  0
 34 75  1  0  0  0  0
 34 76  1  0  0  0  0
 35 78  1  0  0  0  0
 35 79  1  0  0  0  0
 35 80  1  0  0  0  0
M  END
> <PUBCHEM_COMPOUND_CID>
11260637

> <PUBCHEM_COMPOUND_CANONICALIZED>
1

> <PUBCHEM_CACTVS_COMPLEXITY>
979

> <PUBCHEM_CACTVS_HBOND_ACCEPTOR>
6

> <PUBCHEM_CACTVS_HBOND_DONOR>
5

> <PUBCHEM_CACTVS_ROTATABLE_BOND>
2

> <PUBCHEM_CACTVS_SUBSKEYS>
AAADcfB4OAAAAAAAAAAAAAAAAAAAAAAAAAAwYMGCAAAAAADAAAAAGgAACAAADxSggAICCAAAAgCIAiDSCAAAAAAgAAAACAEAAAgBEBYAAQAAQAAF4AAJAAPIyPCPgAAAAAAAAADAAAYAADCAAAAAAAAAAA==

> <PUBCHEM_IUPAC_OPENEYE_NAME>
(1S,2S,4aS,6aR,6aS,6bR,8aR,9S,10R,11R,12aR,14bR)-1,10,11-trihydroxy-9-(hydroxymethyl)-2,4a,6a,6b,9,12a-hexamethyl-1,3,4,5,6,6a,7,8,8a,10,11,12,13,14b-tetradecahydropicene-2-carboxylic acid

> <PUBCHEM_IUPAC_CAS_NAME>
(1S,2S,4aS,6aR,6aS,6bR,8aR,9S,10R,11R,12aR,14bR)-1,10,11-trihydroxy-9-(hydroxymethyl)-2,4a,6a,6b,9,12a-hexamethyl-1,3,4,5,6,6a,7,8,8a,10,11,12,13,14b-tetradecahydropicene-2-carboxylic acid

> <PUBCHEM_IUPAC_NAME_MARKUP>
(1<I>S</I>,2<I>S</I>,4<I>a</I><I>S</I>,6<I>a</I><I>R</I>,6<I>a</I><I>S</I>,6<I>b</I><I>R</I>,8<I>a</I><I>R</I>,9<I>S</I>,10<I>R</I>,11<I>R</I>,12<I>a</I><I>R</I>,14<I>b</I><I>R</I>)-1,10,11-trihydroxy-9-(hydroxymethyl)-2,4<I>a</I>,6<I>a</I>,6<I>b</I>,9,12<I>a</I>-hexamethyl-1,3,4,5,6,6<I>a</I>,7,8,8<I>a</I>,10,11,12,13,14<I>b</I>-tetradecahydropicene-2-carboxylic acid

> <PUBCHEM_IUPAC_NAME>
(1S,2S,4aS,6aR,6aS,6bR,8aR,9S,10R,11R,12aR,14bR)-1,10,11-trihydroxy-9-(hydroxymethyl)-2,4a,6a,6b,9,12a-hexamethyl-1,3,4,5,6,6a,7,8,8a,10,11,12,13,14b-tetradecahydropicene-2-carboxylic acid

> <PUBCHEM_IUPAC_SYSTEMATIC_NAME>
(1S,2S,4aS,6aR,6aS,6bR,8aR,9S,10R,11R,12aR,14bR)-9-(hydroxymethyl)-2,4a,6a,6b,9,12a-hexamethyl-1,10,11-tris(oxidanyl)-1,3,4,5,6,6a,7,8,8a,10,11,12,13,14b-tetradecahydropicene-2-carboxylic acid

> <PUBCHEM_IUPAC_TRADITIONAL_NAME>
(1S,2S,4aS,6aR,6aS,6bR,8aR,9S,10R,11R,12aR,14bR)-1,10,11-trihydroxy-2,4a,6a,6b,9,12a-hexamethyl-9-methylol-1,3,4,5,6,6a,7,8,8a,10,11,12,13,14b-tetradecahydropicene-2-carboxylic acid

> <PUBCHEM_IUPAC_INCHI>
InChI=1S/C30H48O6/c1-25-11-13-26(2,24(35)36)23(34)21(25)17-7-8-20-27(3)15-18(32)22(33)28(4,16-31)19(27)9-10-30(20,6)29(17,5)14-12-25/h7,18-23,31-34H,8-16H2,1-6H3,(H,35,36)/t18-,19-,20-,21-,22+,23+,25-,26+,27+,28-,29-,30-/m1/s1

> <PUBCHEM_IUPAC_INCHIKEY>
UMEFDXAQUUTDHN-HJDCKPNLSA-N

> <PUBCHEM_XLOGP3_AA>
5.4

> <PUBCHEM_EXACT_MASS>
504.34508925

> <PUBCHEM_MOLECULAR_FORMULA>
C30H48O6

> <PUBCHEM_MOLECULAR_WEIGHT>
504.7

> <PUBCHEM_OPENEYE_CAN_SMILES>
CC12CCC(C(C1C3=CCC4C(C3(CC2)C)(CCC5C4(CC(C(C5(C)CO)O)O)C)C)O)(C)C(=O)O

> <PUBCHEM_OPENEYE_ISO_SMILES>
C[C@]12CC[C@]([C@H]([C@H]1C3=CC[C@H]4[C@]([C@@]3(CC2)C)(CC[C@@H]5[C@@]4(C[C@H]([C@@H]([C@]5(C)CO)O)O)C)C)O)(C)C(=O)O

> <PUBCHEM_CACTVS_TPSA>
118

> <PUBCHEM_MONOISOTOPIC_WEIGHT>
504.34508925

> <PUBCHEM_TOTAL_CHARGE>
0

> <PUBCHEM_HEAVY_ATOM_COUNT>
36

> <PUBCHEM_ATOM_DEF_STEREO_COUNT>
12

> <PUBCHEM_ATOM_UDEF_STEREO_COUNT>
0

> <PUBCHEM_BOND_DEF_STEREO_COUNT>
0

> <PUBCHEM_BOND_UDEF_STEREO_COUNT>
0

> <PUBCHEM_ISOTOPIC_ATOM_COUNT>
0

> <PUBCHEM_COMPONENT_COUNT>
1

> <PUBCHEM_CACTVS_TAUTO_COUNT>
-1

> <PUBCHEM_COORDINATE_TYPE>
1
5
255

> <PUBCHEM_BONDANNOTATIONS>
23  1  5
10  27  6
11  38  6
15  33  6
16  43  5
17  34  5
26  2  6
28  3  6
30  35  6
7  22  5
8  37  6
9  25  5

$$$$
