 
  -OEChem-10192104372D

 40 42  0     1  0  0  0  0  0999 V2000
    3.8660   -2.5000    0.0000 O   0  0  0  0  0  0  0  0  0  0  0  0
    5.5981    2.5000    0.0000 O   0  0  0  0  0  0  0  0  0  0  0  0
    2.5000   -4.8660    0.0000 O   0  0  0  0  0  0  0  0  0  0  0  0
    6.9641    4.8660    0.0000 O   0  0  0  0  0  0  0  0  0  0  0  0
    5.5981   -2.5000    0.0000 O   0  0  0  0  0  0  0  0  0  0  0  0
    3.8660    2.5000    0.0000 O   0  0  0  0  0  0  0  0  0  0  0  0
    4.7320   -1.0000    0.0000 C   0  0  0  0  0  0  0  0  0  0  0  0
    4.7320    1.0000    0.0000 C   0  0  0  0  0  0  0  0  0  0  0  0
    3.8660    0.5000    0.0000 C   0  0  0  0  0  0  0  0  0  0  0  0
    3.8660   -0.5000    0.0000 C   0  0  0  0  0  0  0  0  0  0  0  0
    5.5981    0.5000    0.0000 C   0  0  0  0  0  0  0  0  0  0  0  0
    5.5981   -0.5000    0.0000 C   0  0  0  0  0  0  0  0  0  0  0  0
    4.7320   -2.0000    0.0000 C   0  0  0  0  0  0  0  0  0  0  0  0
    4.7320    2.0000    0.0000 C   0  0  0  0  0  0  0  0  0  0  0  0
    3.0000   -4.0000    0.0000 C   0  0  3  0  0  0  0  0  0  0  0  0
    6.4641    4.0000    0.0000 C   0  0  3  0  0  0  0  0  0  0  0  0
    3.8660   -3.5000    0.0000 C   0  0  0  0  0  0  0  0  0  0  0  0
    5.5981    3.5000    0.0000 C   0  0  0  0  0  0  0  0  0  0  0  0
    2.0000   -4.0000    0.0000 C   0  0  0  0  0  0  0  0  0  0  0  0
    7.4641    4.0000    0.0000 C   0  0  0  0  0  0  0  0  0  0  0  0
    5.2690   -1.3100    0.0000 H   0  0  0  0  0  0  0  0  0  0  0  0
    5.2690    1.3100    0.0000 H   0  0  0  0  0  0  0  0  0  0  0  0
    3.2554    0.3923    0.0000 H   0  0  0  0  0  0  0  0  0  0  0  0
    3.6540    1.0826    0.0000 H   0  0  0  0  0  0  0  0  0  0  0  0
    5.8101    1.0826    0.0000 H   0  0  0  0  0  0  0  0  0  0  0  0
    6.2087    0.3923    0.0000 H   0  0  0  0  0  0  0  0  0  0  0  0
    3.2554   -0.3923    0.0000 H   0  0  0  0  0  0  0  0  0  0  0  0
    3.6540   -1.0826    0.0000 H   0  0  0  0  0  0  0  0  0  0  0  0
    5.8101   -1.0826    0.0000 H   0  0  0  0  0  0  0  0  0  0  0  0
    6.2087   -0.3923    0.0000 H   0  0  0  0  0  0  0  0  0  0  0  0
    3.4384   -4.4384    0.0000 H   0  0  0  0  0  0  0  0  0  0  0  0
    6.0257    4.4384    0.0000 H   0  0  0  0  0  0  0  0  0  0  0  0
    4.0781   -4.0826    0.0000 H   0  0  0  0  0  0  0  0  0  0  0  0
    4.4766   -3.3923    0.0000 H   0  0  0  0  0  0  0  0  0  0  0  0
    5.3860    4.0826    0.0000 H   0  0  0  0  0  0  0  0  0  0  0  0
    4.9875    3.3923    0.0000 H   0  0  0  0  0  0  0  0  0  0  0  0
    1.8923   -3.3894    0.0000 H   0  0  0  0  0  0  0  0  0  0  0  0
    1.4174   -4.2120    0.0000 H   0  0  0  0  0  0  0  0  0  0  0  0
    7.5718    3.3894    0.0000 H   0  0  0  0  0  0  0  0  0  0  0  0
    8.0467    4.2120    0.0000 H   0  0  0  0  0  0  0  0  0  0  0  0
  1 13  1  0  0  0  0
  1 17  1  0  0  0  0
  2 14  1  0  0  0  0
  2 18  1  0  0  0  0
  3 15  1  0  0  0  0
  3 19  1  0  0  0  0
  4 16  1  0  0  0  0
  4 20  1  0  0  0  0
  5 13  2  0  0  0  0
  6 14  2  0  0  0  0
  7 10  1  0  0  0  0
  7 12  1  0  0  0  0
  7 13  1  0  0  0  0
  7 21  1  0  0  0  0
  8  9  1  0  0  0  0
  8 11  1  0  0  0  0
  8 14  1  0  0  0  0
  8 22  1  0  0  0  0
  9 10  1  0  0  0  0
  9 23  1  0  0  0  0
  9 24  1  0  0  0  0
 10 27  1  0  0  0  0
 10 28  1  0  0  0  0
 11 12  1  0  0  0  0
 11 25  1  0  0  0  0
 11 26  1  0  0  0  0
 12 29  1  0  0  0  0
 12 30  1  0  0  0  0
 15 17  1  0  0  0  0
 15 19  1  0  0  0  0
 15 31  1  0  0  0  0
 16 18  1  0  0  0  0
 16 20  1  0  0  0  0
 16 32  1  0  0  0  0
 17 33  1  0  0  0  0
 17 34  1  0  0  0  0
 18 35  1  0  0  0  0
 18 36  1  0  0  0  0
 19 37  1  0  0  0  0
 19 38  1  0  0  0  0
 20 39  1  0  0  0  0
 20 40  1  0  0  0  0
M  END
> <PUBCHEM_COMPOUND_CID>
111267

> <PUBCHEM_COMPOUND_CANONICALIZED>
1

> <PUBCHEM_CACTVS_COMPLEXITY>
338

> <PUBCHEM_CACTVS_HBOND_ACCEPTOR>
6

> <PUBCHEM_CACTVS_HBOND_DONOR>
0

> <PUBCHEM_CACTVS_ROTATABLE_BOND>
8

> <PUBCHEM_CACTVS_SUBSKEYS>
AAADceBwOAAAAAAAAAAAAAAAEiQAAAAAAAAwAAAAAAAAAAAAAAAAGgAAAAAADRSggAIACAAABAAIAACQCAAAAAAAAAAAAAEAAAABABIAAAACAAAFAAACAAGIyDCOAAAAAAAAAACAAAAAAAAAAAAAAAAAAA==

> <PUBCHEM_IUPAC_OPENEYE_NAME>
bis(oxiran-2-ylmethyl) cyclohexane-1,4-dicarboxylate

> <PUBCHEM_IUPAC_CAS_NAME>
cyclohexane-1,4-dicarboxylic acid bis(2-oxiranylmethyl) ester

> <PUBCHEM_IUPAC_NAME_MARKUP>
bis(oxiran-2-ylmethyl) cyclohexane-1,4-dicarboxylate

> <PUBCHEM_IUPAC_NAME>
bis(oxiran-2-ylmethyl) cyclohexane-1,4-dicarboxylate

> <PUBCHEM_IUPAC_SYSTEMATIC_NAME>
bis(oxiran-2-ylmethyl) cyclohexane-1,4-dicarboxylate

> <PUBCHEM_IUPAC_TRADITIONAL_NAME>
cyclohexane-1,4-dicarboxylic acid diglycidyl ester

> <PUBCHEM_IUPAC_INCHI>
InChI=1S/C14H20O6/c15-13(19-7-11-5-17-11)9-1-2-10(4-3-9)14(16)20-8-12-6-18-12/h9-12H,1-8H2

> <PUBCHEM_IUPAC_INCHIKEY>
HGXHJQLDZPXEOG-UHFFFAOYSA-N

> <PUBCHEM_XLOGP3_AA>
0.5

> <PUBCHEM_EXACT_MASS>
284.12598835

> <PUBCHEM_MOLECULAR_FORMULA>
C14H20O6

> <PUBCHEM_MOLECULAR_WEIGHT>
284.30

> <PUBCHEM_OPENEYE_CAN_SMILES>
C1CC(CCC1C(=O)OCC2CO2)C(=O)OCC3CO3

> <PUBCHEM_OPENEYE_ISO_SMILES>
C1CC(CCC1C(=O)OCC2CO2)C(=O)OCC3CO3

> <PUBCHEM_CACTVS_TPSA>
77.7

> <PUBCHEM_MONOISOTOPIC_WEIGHT>
284.12598835

> <PUBCHEM_TOTAL_CHARGE>
0

> <PUBCHEM_HEAVY_ATOM_COUNT>
20

> <PUBCHEM_ATOM_DEF_STEREO_COUNT>
0

> <PUBCHEM_ATOM_UDEF_STEREO_COUNT>
2

> <PUBCHEM_BOND_DEF_STEREO_COUNT>
0

> <PUBCHEM_BOND_UDEF_STEREO_COUNT>
0

> <PUBCHEM_ISOTOPIC_ATOM_COUNT>
0

> <PUBCHEM_COMPONENT_COUNT>
1

> <PUBCHEM_CACTVS_TAUTO_COUNT>
1

> <PUBCHEM_COORDINATE_TYPE>
1
5
255

> <PUBCHEM_BONDANNOTATIONS>
15  17  3
16  18  3

$$$$
