 
  -OEChem-10192103382D

 43 44  0     0  0  0  0  0  0999 V2000
    6.0010    0.5000    0.0000 O   0  0  0  0  0  0  0  0  0  0  0  0
    7.7331    2.5000    0.0000 O   0  0  0  0  0  0  0  0  0  0  0  0
    5.1350   -2.0000    0.0000 O   0  0  0  0  0  0  0  0  0  0  0  0
    9.4651    2.5000    0.0000 O   0  0  0  0  0  0  0  0  0  0  0  0
    2.5369   -3.5000    0.0000 O   0  0  0  0  0  0  0  0  0  0  0  0
    6.8671    4.0000    0.0000 O   0  0  0  0  0  0  0  0  0  0  0  0
    3.4030   -2.0000    0.0000 O   0  0  0  0  0  0  0  0  0  0  0  0
    6.8671    1.0000    0.0000 C   0  0  0  0  0  0  0  0  0  0  0  0
    6.0010   -0.5000    0.0000 C   0  0  0  0  0  0  0  0  0  0  0  0
    6.8671    2.0000    0.0000 C   0  0  0  0  0  0  0  0  0  0  0  0
    5.1350   -1.0000    0.0000 C   0  0  0  0  0  0  0  0  0  0  0  0
    8.5991    4.0000    0.0000 C   0  0  0  0  0  0  0  0  0  0  0  0
    4.2690   -3.5000    0.0000 C   0  0  0  0  0  0  0  0  0  0  0  0
    7.7331    3.5000    0.0000 C   0  0  0  0  0  0  0  0  0  0  0  0
    4.2690   -2.5000    0.0000 C   0  0  0  0  0  0  0  0  0  0  0  0
    9.4651    3.5000    0.0000 C   0  0  0  0  0  0  0  0  0  0  0  0
    3.4030   -4.0000    0.0000 C   0  0  0  0  0  0  0  0  0  0  0  0
    8.5991    5.0000    0.0000 C   0  0  0  0  0  0  0  0  0  0  0  0
    5.1350   -4.0000    0.0000 C   0  0  0  0  0  0  0  0  0  0  0  0
   10.3312    4.0000    0.0000 C   0  0  0  0  0  0  0  0  0  0  0  0
    3.4030   -5.0000    0.0000 C   0  0  0  0  0  0  0  0  0  0  0  0
    9.4651    5.5000    0.0000 C   0  0  0  0  0  0  0  0  0  0  0  0
    5.1350   -5.0000    0.0000 C   0  0  0  0  0  0  0  0  0  0  0  0
   10.3312    5.0000    0.0000 C   0  0  0  0  0  0  0  0  0  0  0  0
    4.2690   -5.5000    0.0000 C   0  0  0  0  0  0  0  0  0  0  0  0
    7.0791    0.4174    0.0000 H   0  0  0  0  0  0  0  0  0  0  0  0
    7.4776    1.1077    0.0000 H   0  0  0  0  0  0  0  0  0  0  0  0
    6.2131   -1.0826    0.0000 H   0  0  0  0  0  0  0  0  0  0  0  0
    6.6116   -0.3923    0.0000 H   0  0  0  0  0  0  0  0  0  0  0  0
    6.6550    2.5826    0.0000 H   0  0  0  0  0  0  0  0  0  0  0  0
    6.2565    1.8923    0.0000 H   0  0  0  0  0  0  0  0  0  0  0  0
    4.9230   -0.4174    0.0000 H   0  0  0  0  0  0  0  0  0  0  0  0
    4.5244   -1.1077    0.0000 H   0  0  0  0  0  0  0  0  0  0  0  0
    8.0622    5.3100    0.0000 H   0  0  0  0  0  0  0  0  0  0  0  0
    5.6720   -3.6900    0.0000 H   0  0  0  0  0  0  0  0  0  0  0  0
   10.8681    3.6900    0.0000 H   0  0  0  0  0  0  0  0  0  0  0  0
    2.8660   -5.3100    0.0000 H   0  0  0  0  0  0  0  0  0  0  0  0
    9.4651    6.1200    0.0000 H   0  0  0  0  0  0  0  0  0  0  0  0
    5.6720   -5.3100    0.0000 H   0  0  0  0  0  0  0  0  0  0  0  0
   10.8681    5.3100    0.0000 H   0  0  0  0  0  0  0  0  0  0  0  0
    4.2690   -6.1200    0.0000 H   0  0  0  0  0  0  0  0  0  0  0  0
   10.0021    2.1900    0.0000 H   0  0  0  0  0  0  0  0  0  0  0  0
    2.0000   -3.8100    0.0000 H   0  0  0  0  0  0  0  0  0  0  0  0
  1  8  1  0  0  0  0
  1  9  1  0  0  0  0
  2 10  1  0  0  0  0
  2 14  1  0  0  0  0
  3 11  1  0  0  0  0
  3 15  1  0  0  0  0
  4 16  1  0  0  0  0
  4 42  1  0  0  0  0
  5 17  1  0  0  0  0
  5 43  1  0  0  0  0
  6 14  2  0  0  0  0
  7 15  2  0  0  0  0
  8 10  1  0  0  0  0
  8 26  1  0  0  0  0
  8 27  1  0  0  0  0
  9 11  1  0  0  0  0
  9 28  1  0  0  0  0
  9 29  1  0  0  0  0
 10 30  1  0  0  0  0
 10 31  1  0  0  0  0
 11 32  1  0  0  0  0
 11 33  1  0  0  0  0
 12 14  1  0  0  0  0
 12 16  1  0  0  0  0
 12 18  2  0  0  0  0
 13 15  1  0  0  0  0
 13 17  1  0  0  0  0
 13 19  2  0  0  0  0
 16 20  2  0  0  0  0
 17 21  2  0  0  0  0
 18 22  1  0  0  0  0
 18 34  1  0  0  0  0
 19 23  1  0  0  0  0
 19 35  1  0  0  0  0
 20 24  1  0  0  0  0
 20 36  1  0  0  0  0
 21 25  1  0  0  0  0
 21 37  1  0  0  0  0
 22 24  2  0  0  0  0
 22 38  1  0  0  0  0
 23 25  2  0  0  0  0
 23 39  1  0  0  0  0
 24 40  1  0  0  0  0
 25 41  1  0  0  0  0
M  END
> <PUBCHEM_COMPOUND_CID>
23024589

> <PUBCHEM_COMPOUND_CANONICALIZED>
1

> <PUBCHEM_CACTVS_COMPLEXITY>
388

> <PUBCHEM_CACTVS_HBOND_ACCEPTOR>
7

> <PUBCHEM_CACTVS_HBOND_DONOR>
2

> <PUBCHEM_CACTVS_ROTATABLE_BOND>
10

> <PUBCHEM_CACTVS_SUBSKEYS>
AAADceB4OAAAAAAAAAAAAAAAAAAAAAAAAAAwYAAAAAAAAAABQAAAGgAACAAADASgmAIwDoAABgCIAiDSCAACAAAkIAAIiAEGCMgJJzaCNRqCcUAl4BEKuYeIyCCOAAAAAAAIAAAAAAAAABAAAAAAAAAAAA==

> <PUBCHEM_IUPAC_OPENEYE_NAME>
2-[2-(2-hydroxybenzoyl)oxyethoxy]ethyl 2-hydroxybenzoate

> <PUBCHEM_IUPAC_CAS_NAME>
2-hydroxybenzoic acid 2-[2-[(2-hydroxyphenyl)-oxomethoxy]ethoxy]ethyl ester

> <PUBCHEM_IUPAC_NAME_MARKUP>
2-[2-(2-hydroxybenzoyl)oxyethoxy]ethyl 2-hydroxybenzoate

> <PUBCHEM_IUPAC_NAME>
2-[2-(2-hydroxybenzoyl)oxyethoxy]ethyl 2-hydroxybenzoate

> <PUBCHEM_IUPAC_SYSTEMATIC_NAME>
2-[2-(2-hydroxyphenyl)carbonyloxyethoxy]ethyl 2-oxidanylbenzoate

> <PUBCHEM_IUPAC_TRADITIONAL_NAME>
2-hydroxybenzoic acid 2-(2-salicyloyloxyethoxy)ethyl ester

> <PUBCHEM_IUPAC_INCHI>
InChI=1S/C18H18O7/c19-15-7-3-1-5-13(15)17(21)24-11-9-23-10-12-25-18(22)14-6-2-4-8-16(14)20/h1-8,19-20H,9-12H2

> <PUBCHEM_IUPAC_INCHIKEY>
YAJWEYDJEYRASM-UHFFFAOYSA-N

> <PUBCHEM_XLOGP3>
3.7

> <PUBCHEM_EXACT_MASS>
346.10525291

> <PUBCHEM_MOLECULAR_FORMULA>
C18H18O7

> <PUBCHEM_MOLECULAR_WEIGHT>
346.3

> <PUBCHEM_OPENEYE_CAN_SMILES>
C1=CC=C(C(=C1)C(=O)OCCOCCOC(=O)C2=CC=CC=C2O)O

> <PUBCHEM_OPENEYE_ISO_SMILES>
C1=CC=C(C(=C1)C(=O)OCCOCCOC(=O)C2=CC=CC=C2O)O

> <PUBCHEM_CACTVS_TPSA>
102

> <PUBCHEM_MONOISOTOPIC_WEIGHT>
346.10525291

> <PUBCHEM_TOTAL_CHARGE>
0

> <PUBCHEM_HEAVY_ATOM_COUNT>
25

> <PUBCHEM_ATOM_DEF_STEREO_COUNT>
0

> <PUBCHEM_ATOM_UDEF_STEREO_COUNT>
0

> <PUBCHEM_BOND_DEF_STEREO_COUNT>
0

> <PUBCHEM_BOND_UDEF_STEREO_COUNT>
0

> <PUBCHEM_ISOTOPIC_ATOM_COUNT>
0

> <PUBCHEM_COMPONENT_COUNT>
1

> <PUBCHEM_CACTVS_TAUTO_COUNT>
-1

> <PUBCHEM_COORDINATE_TYPE>
1
5
255

> <PUBCHEM_BONDANNOTATIONS>
12  16  8
12  18  8
13  17  8
13  19  8
16  20  8
17  21  8
18  22  8
19  23  8
20  24  8
21  25  8
22  24  8
23  25  8

$$$$
