 
  -OEChem-10192103282D

 77 80  0     1  0  0  0  0  0999 V2000
    6.0010   -0.1550    0.0000 O   0  0  0  0  0  0  0  0  0  0  0  0
    7.7331   -0.1550    0.0000 O   0  0  0  0  0  0  0  0  0  0  0  0
    4.2690   -2.1550    0.0000 O   0  0  0  0  0  0  0  0  0  0  0  0
    5.1350   -3.6550    0.0000 O   0  0  0  0  0  0  0  0  0  0  0  0
    6.8671    2.3450    0.0000 O   0  0  0  0  0  0  0  0  0  0  0  0
    6.0010   -3.1550    0.0000 O   0  0  0  0  0  0  0  0  0  0  0  0
    7.7331   -2.1550    0.0000 O   0  0  0  0  0  0  0  0  0  0  0  0
    9.4651    0.8450    0.0000 O   0  0  0  0  0  0  0  0  0  0  0  0
    2.5369   -3.1550    0.0000 O   0  0  0  0  0  0  0  0  0  0  0  0
    9.4651    2.8450    0.0000 O   0  0  0  0  0  0  0  0  0  0  0  0
    2.5369   -5.1550    0.0000 O   0  0  0  0  0  0  0  0  0  0  0  0
    7.7331    3.8450    0.0000 O   0  0  0  0  0  0  0  0  0  0  0  0
    4.2690   -6.1550    0.0000 O   0  0  0  0  0  0  0  0  0  0  0  0
    4.2690    0.8450    0.0000 O   0  0  0  0  0  0  0  0  0  0  0  0
    5.1350    1.3450    0.0000 O   0  0  0  0  0  0  0  0  0  0  0  0
    6.0010   -6.1550    0.0000 O   0  0  0  0  0  0  0  0  0  0  0  0
    4.2690    5.8450    0.0000 O   0  0  0  0  0  0  0  0  0  0  0  0
    5.1350   -1.6550    0.0000 C   0  0  1  0  0  0  0  0  0  0  0  0
    6.0010   -2.1550    0.0000 C   0  0  1  0  0  0  0  0  0  0  0  0
    6.8671   -1.6550    0.0000 C   0  0  2  0  0  0  0  0  0  0  0  0
    5.1350   -0.6550    0.0000 C   0  0  1  0  0  0  0  0  0  0  0  0
    6.8671   -0.6550    0.0000 C   0  0  2  0  0  0  0  0  0  0  0  0
    7.7331    0.8450    0.0000 C   0  0  1  0  0  0  0  0  0  0  0  0
    8.5991    1.3450    0.0000 C   0  0  1  0  0  0  0  0  0  0  0  0
    4.2690   -3.1550    0.0000 C   0  0  1  0  0  0  0  0  0  0  0  0
    6.8671    1.3450    0.0000 C   0  0  1  0  0  0  0  0  0  0  0  0
    3.4030   -3.6550    0.0000 C   0  0  1  0  0  0  0  0  0  0  0  0
    8.5991    2.3450    0.0000 C   0  0  2  0  0  0  0  0  0  0  0  0
    3.4030   -4.6550    0.0000 C   0  0  2  0  0  0  0  0  0  0  0  0
    4.2690   -5.1550    0.0000 C   0  0  1  0  0  0  0  0  0  0  0  0
    5.1350   -4.6550    0.0000 C   0  0  1  0  0  0  0  0  0  0  0  0
    7.7331    2.8450    0.0000 C   0  0  1  0  0  0  0  0  0  0  0  0
    4.2690   -0.1550    0.0000 C   0  0  0  0  0  0  0  0  0  0  0  0
    6.0010    0.8450    0.0000 C   0  0  0  0  0  0  0  0  0  0  0  0
    6.0010   -5.1550    0.0000 C   0  0  0  0  0  0  0  0  0  0  0  0
    6.8671    4.3450    0.0000 C   0  0  0  0  0  0  0  0  0  0  0  0
    6.8671    5.3450    0.0000 C   0  0  0  0  0  0  0  0  0  0  0  0
    6.0010    3.8450    0.0000 C   0  0  0  0  0  0  0  0  0  0  0  0
    6.0010    5.8450    0.0000 C   0  0  0  0  0  0  0  0  0  0  0  0
    5.1350    4.3450    0.0000 C   0  0  0  0  0  0  0  0  0  0  0  0
    5.1350    5.3450    0.0000 C   0  0  0  0  0  0  0  0  0  0  0  0
    5.1350   -2.2750    0.0000 H   0  0  0  0  0  0  0  0  0  0  0  0
    5.4641   -2.4650    0.0000 H   0  0  0  0  0  0  0  0  0  0  0  0
    6.8671   -2.2750    0.0000 H   0  0  0  0  0  0  0  0  0  0  0  0
    5.1350   -0.0350    0.0000 H   0  0  0  0  0  0  0  0  0  0  0  0
    7.4040   -0.9650    0.0000 H   0  0  0  0  0  0  0  0  0  0  0  0
    7.1962    0.5350    0.0000 H   0  0  0  0  0  0  0  0  0  0  0  0
    8.5991    0.7250    0.0000 H   0  0  0  0  0  0  0  0  0  0  0  0
    3.7320   -2.8450    0.0000 H   0  0  0  0  0  0  0  0  0  0  0  0
    6.3301    1.6550    0.0000 H   0  0  0  0  0  0  0  0  0  0  0  0
    3.4030   -3.0350    0.0000 H   0  0  0  0  0  0  0  0  0  0  0  0
    8.5991    2.9650    0.0000 H   0  0  0  0  0  0  0  0  0  0  0  0
    3.4030   -5.2750    0.0000 H   0  0  0  0  0  0  0  0  0  0  0  0
    4.8059   -5.4650    0.0000 H   0  0  0  0  0  0  0  0  0  0  0  0
    5.6720   -4.3450    0.0000 H   0  0  0  0  0  0  0  0  0  0  0  0
    7.1962    3.1550    0.0000 H   0  0  0  0  0  0  0  0  0  0  0  0
    3.6584   -0.0473    0.0000 H   0  0  0  0  0  0  0  0  0  0  0  0
    4.0569   -0.7376    0.0000 H   0  0  0  0  0  0  0  0  0  0  0  0
    5.6025    0.3701    0.0000 H   0  0  0  0  0  0  0  0  0  0  0  0
    6.3996    0.3701    0.0000 H   0  0  0  0  0  0  0  0  0  0  0  0
    6.5380   -3.4650    0.0000 H   0  0  0  0  0  0  0  0  0  0  0  0
    8.2700   -1.8450    0.0000 H   0  0  0  0  0  0  0  0  0  0  0  0
    6.6116   -5.2627    0.0000 H   0  0  0  0  0  0  0  0  0  0  0  0
    6.2131   -4.5724    0.0000 H   0  0  0  0  0  0  0  0  0  0  0  0
   10.0021    1.1550    0.0000 H   0  0  0  0  0  0  0  0  0  0  0  0
    2.0000   -3.4650    0.0000 H   0  0  0  0  0  0  0  0  0  0  0  0
    9.4651    3.4650    0.0000 H   0  0  0  0  0  0  0  0  0  0  0  0
    2.5369   -5.7750    0.0000 H   0  0  0  0  0  0  0  0  0  0  0  0
    3.7320   -6.4650    0.0000 H   0  0  0  0  0  0  0  0  0  0  0  0
    3.7320    1.1550    0.0000 H   0  0  0  0  0  0  0  0  0  0  0  0
    5.1350    1.9650    0.0000 H   0  0  0  0  0  0  0  0  0  0  0  0
    6.5380   -6.4650    0.0000 H   0  0  0  0  0  0  0  0  0  0  0  0
    7.4040    5.6550    0.0000 H   0  0  0  0  0  0  0  0  0  0  0  0
    6.0010    3.2250    0.0000 H   0  0  0  0  0  0  0  0  0  0  0  0
    6.0010    6.4650    0.0000 H   0  0  0  0  0  0  0  0  0  0  0  0
    4.5981    4.0350    0.0000 H   0  0  0  0  0  0  0  0  0  0  0  0
    4.2690    6.4650    0.0000 H   0  0  0  0  0  0  0  0  0  0  0  0
  1 21  1  0  0  0  0
  1 22  1  0  0  0  0
 22  2  1  6  0  0  0
 23  2  1  6  0  0  0
 18  3  1  6  0  0  0
 25  3  1  1  0  0  0
  4 25  1  0  0  0  0
  4 31  1  0  0  0  0
  5 26  1  0  0  0  0
  5 32  1  0  0  0  0
 19  6  1  1  0  0  0
  6 61  1  0  0  0  0
 20  7  1  6  0  0  0
  7 62  1  0  0  0  0
 24  8  1  1  0  0  0
  8 65  1  0  0  0  0
 27  9  1  1  0  0  0
  9 66  1  0  0  0  0
 28 10  1  6  0  0  0
 10 67  1  0  0  0  0
 29 11  1  6  0  0  0
 11 68  1  0  0  0  0
 32 12  1  1  0  0  0
 12 36  1  0  0  0  0
 30 13  1  1  0  0  0
 13 69  1  0  0  0  0
 14 33  1  0  0  0  0
 14 70  1  0  0  0  0
 15 34  1  0  0  0  0
 15 71  1  0  0  0  0
 16 35  1  0  0  0  0
 16 72  1  0  0  0  0
 17 41  1  0  0  0  0
 17 77  1  0  0  0  0
 18 19  1  0  0  0  0
 18 21  1  0  0  0  0
 18 42  1  0  0  0  0
 19 20  1  0  0  0  0
 19 43  1  0  0  0  0
 20 22  1  0  0  0  0
 20 44  1  0  0  0  0
 21 33  1  1  0  0  0
 21 45  1  0  0  0  0
 22 46  1  0  0  0  0
 23 24  1  0  0  0  0
 23 26  1  0  0  0  0
 23 47  1  0  0  0  0
 24 28  1  0  0  0  0
 24 48  1  0  0  0  0
 25 27  1  0  0  0  0
 25 49  1  0  0  0  0
 26 34  1  1  0  0  0
 26 50  1  0  0  0  0
 27 29  1  0  0  0  0
 27 51  1  0  0  0  0
 28 32  1  0  0  0  0
 28 52  1  0  0  0  0
 29 30  1  0  0  0  0
 29 53  1  0  0  0  0
 30 31  1  0  0  0  0
 30 54  1  0  0  0  0
 31 35  1  6  0  0  0
 31 55  1  0  0  0  0
 32 56  1  0  0  0  0
 33 57  1  0  0  0  0
 33 58  1  0  0  0  0
 34 59  1  0  0  0  0
 34 60  1  0  0  0  0
 35 63  1  0  0  0  0
 35 64  1  0  0  0  0
 36 37  2  0  0  0  0
 36 38  1  0  0  0  0
 37 39  1  0  0  0  0
 37 73  1  0  0  0  0
 38 40  2  0  0  0  0
 38 74  1  0  0  0  0
 39 41  2  0  0  0  0
 39 75  1  0  0  0  0
 40 41  1  0  0  0  0
 40 76  1  0  0  0  0
M  END
> <PUBCHEM_COMPOUND_CID>
10257947

> <PUBCHEM_COMPOUND_CANONICALIZED>
1

> <PUBCHEM_CACTVS_COMPLEXITY>
800

> <PUBCHEM_CACTVS_HBOND_ACCEPTOR>
17

> <PUBCHEM_CACTVS_HBOND_DONOR>
11

> <PUBCHEM_CACTVS_ROTATABLE_BOND>
9

> <PUBCHEM_CACTVS_SUBSKEYS>
AAADcfB4PgAAAAAAAAAAAAAAAAAAAAAAAAA0SJEAAAAAAAABAAAAGgAACAAACBSwkAMwDoAABgCAACBCAAACCAAgIAAIiAAGCIgdNiKGMRqieCClwBEPuAfAYAwAAQAAAAAAAAACAAAAAAAAAAAAAAAAAA==

> <PUBCHEM_IUPAC_OPENEYE_NAME>
(2R,3R,4S,5S,6R)-2-[(2R,3S,4R,5R,6R)-6-[(2R,3S,4R,5R,6S)-4,5-dihydroxy-2-(hydroxymethyl)-6-(4-hydroxyphenoxy)tetrahydropyran-3-yl]oxy-4,5-dihydroxy-2-(hydroxymethyl)tetrahydropyran-3-yl]oxy-6-(hydroxymethyl)tetrahydropyran-3,4,5-triol

> <PUBCHEM_IUPAC_CAS_NAME>
(2R,3R,4S,5S,6R)-2-[[(2R,3S,4R,5R,6R)-6-[[(2R,3S,4R,5R,6S)-4,5-dihydroxy-2-(hydroxymethyl)-6-(4-hydroxyphenoxy)-3-oxanyl]oxy]-4,5-dihydroxy-2-(hydroxymethyl)-3-oxanyl]oxy]-6-(hydroxymethyl)oxane-3,4,5-triol

> <PUBCHEM_IUPAC_NAME_MARKUP>
(2<I>R</I>,3<I>R</I>,4<I>S</I>,5<I>S</I>,6<I>R</I>)-2-[(2<I>R</I>,3<I>S</I>,4<I>R</I>,5<I>R</I>,6<I>R</I>)-6-[(2<I>R</I>,3<I>S</I>,4<I>R</I>,5<I>R</I>,6<I>S</I>)-4,5-dihydroxy-2-(hydroxymethyl)-6-(4-hydroxyphenoxy)oxan-3-yl]oxy-4,5-dihydroxy-2-(hydroxymethyl)oxan-3-yl]oxy-6-(hydroxymethyl)oxane-3,4,5-triol

> <PUBCHEM_IUPAC_NAME>
(2R,3R,4S,5S,6R)-2-[(2R,3S,4R,5R,6R)-6-[(2R,3S,4R,5R,6S)-4,5-dihydroxy-2-(hydroxymethyl)-6-(4-hydroxyphenoxy)oxan-3-yl]oxy-4,5-dihydroxy-2-(hydroxymethyl)oxan-3-yl]oxy-6-(hydroxymethyl)oxane-3,4,5-triol

> <PUBCHEM_IUPAC_SYSTEMATIC_NAME>
(2R,3S,4S,5R,6R)-2-(hydroxymethyl)-6-[(2R,3S,4R,5R,6R)-2-(hydroxymethyl)-6-[(2R,3S,4R,5R,6S)-2-(hydroxymethyl)-4,5-bis(oxidanyl)-6-(4-oxidanylphenoxy)oxan-3-yl]oxy-4,5-bis(oxidanyl)oxan-3-yl]oxy-oxane-3,4,5-triol

> <PUBCHEM_IUPAC_TRADITIONAL_NAME>
(2R,3R,4S,5S,6R)-2-[(2R,3S,4R,5R,6R)-6-[(2R,3S,4R,5R,6S)-4,5-dihydroxy-6-(4-hydroxyphenoxy)-2-methylol-tetrahydropyran-3-yl]oxy-4,5-dihydroxy-2-methylol-tetrahydropyran-3-yl]oxy-6-methylol-tetrahydropyran-3,4,5-triol

> <PUBCHEM_IUPAC_INCHI>
InChI=1S/C24H36O17/c25-5-10-13(29)14(30)17(33)23(37-10)40-21-12(7-27)39-24(19(35)16(21)32)41-20-11(6-26)38-22(18(34)15(20)31)36-9-3-1-8(28)2-4-9/h1-4,10-35H,5-7H2/t10-,11-,12-,13-,14+,15-,16-,17-,18-,19-,20-,21-,22-,23-,24-/m1/s1

> <PUBCHEM_IUPAC_INCHIKEY>
KGUKTZOHQQNSDG-KKFBLJMZSA-N

> <PUBCHEM_XLOGP3>
-5

> <PUBCHEM_EXACT_MASS>
596.19524968

> <PUBCHEM_MOLECULAR_FORMULA>
C24H36O17

> <PUBCHEM_MOLECULAR_WEIGHT>
596.5

> <PUBCHEM_OPENEYE_CAN_SMILES>
C1=CC(=CC=C1O)OC2C(C(C(C(O2)CO)OC3C(C(C(C(O3)CO)OC4C(C(C(C(O4)CO)O)O)O)O)O)O)O

> <PUBCHEM_OPENEYE_ISO_SMILES>
C1=CC(=CC=C1O)O[C@H]2[C@@H]([C@H]([C@@H]([C@H](O2)CO)O[C@@H]3[C@@H]([C@H]([C@@H]([C@H](O3)CO)O[C@@H]4[C@@H]([C@H]([C@@H]([C@H](O4)CO)O)O)O)O)O)O)O

> <PUBCHEM_CACTVS_TPSA>
278

> <PUBCHEM_MONOISOTOPIC_WEIGHT>
596.19524968

> <PUBCHEM_TOTAL_CHARGE>
0

> <PUBCHEM_HEAVY_ATOM_COUNT>
41

> <PUBCHEM_ATOM_DEF_STEREO_COUNT>
15

> <PUBCHEM_ATOM_UDEF_STEREO_COUNT>
0

> <PUBCHEM_BOND_DEF_STEREO_COUNT>
0

> <PUBCHEM_BOND_UDEF_STEREO_COUNT>
0

> <PUBCHEM_ISOTOPIC_ATOM_COUNT>
0

> <PUBCHEM_COMPONENT_COUNT>
1

> <PUBCHEM_CACTVS_TAUTO_COUNT>
-1

> <PUBCHEM_COORDINATE_TYPE>
1
5
255

> <PUBCHEM_BONDANNOTATIONS>
28  10  6
29  11  6
32  12  5
30  13  5
22  2  6
23  2  6
21  33  5
26  34  5
18  3  6
25  3  5
31  35  6
36  37  8
36  38  8
37  39  8
38  40  8
39  41  8
40  41  8
19  6  5
20  7  6
24  8  5
27  9  5

$$$$
