 
  -OEChem-10192103502D

 35 34  0     1  0  0  0  0  0999 V2000
    4.2690    0.2500    0.0000 O   0  0  0  0  0  0  0  0  0  0  0  0
    5.1350    2.7500    0.0000 O   0  0  0  0  0  0  0  0  0  0  0  0
    6.0010    0.2500    0.0000 O   0  0  0  0  0  0  0  0  0  0  0  0
    6.8671    2.7500    0.0000 O   0  0  0  0  0  0  0  0  0  0  0  0
    4.2690   -1.7500    0.0000 O   0  0  0  0  0  0  0  0  0  0  0  0
    2.5369    1.2500    0.0000 O   0  0  0  0  0  0  0  0  0  0  0  0
    3.4030    2.7500    0.0000 O   0  0  0  0  0  0  0  0  0  0  0  0
    8.5991    1.7500    0.0000 O   0  0  0  0  0  0  0  0  0  0  0  0
    2.5369   -2.7500    0.0000 O   0  0  0  0  0  0  0  0  0  0  0  0
    7.7331    0.2500    0.0000 O   0  0  0  0  0  0  0  0  0  0  0  0
    5.1350    1.7500    0.0000 C   0  0  1  0  0  0  0  0  0  0  0  0
    6.0010    1.2500    0.0000 C   0  0  1  0  0  0  0  0  0  0  0  0
    4.2690    1.2500    0.0000 C   0  0  2  0  0  0  0  0  0  0  0  0
    6.8671    1.7500    0.0000 C   0  0  1  0  0  0  0  0  0  0  0  0
    3.4030   -0.2500    0.0000 C   0  0  0  0  0  0  0  0  0  0  0  0
    3.4030   -1.2500    0.0000 C   0  0  3  0  0  0  0  0  0  0  0  0
    3.4030    1.7500    0.0000 C   0  0  0  0  0  0  0  0  0  0  0  0
    7.7331    1.2500    0.0000 C   0  0  0  0  0  0  0  0  0  0  0  0
    2.5369   -1.7500    0.0000 C   0  0  0  0  0  0  0  0  0  0  0  0
    5.6720    2.0600    0.0000 H   0  0  0  0  0  0  0  0  0  0  0  0
    6.5380    0.9400    0.0000 H   0  0  0  0  0  0  0  0  0  0  0  0
    4.8059    0.9400    0.0000 H   0  0  0  0  0  0  0  0  0  0  0  0
    6.3301    2.0600    0.0000 H   0  0  0  0  0  0  0  0  0  0  0  0
    3.1909    0.3326    0.0000 H   0  0  0  0  0  0  0  0  0  0  0  0
    2.7924   -0.3577    0.0000 H   0  0  0  0  0  0  0  0  0  0  0  0
    3.4030   -1.8700    0.0000 H   0  0  0  0  0  0  0  0  0  0  0  0
    5.6720    3.0600    0.0000 H   0  0  0  0  0  0  0  0  0  0  0  0
    6.5380   -0.0600    0.0000 H   0  0  0  0  0  0  0  0  0  0  0  0
    2.3249   -1.1674    0.0000 H   0  0  0  0  0  0  0  0  0  0  0  0
    1.9264   -1.8577    0.0000 H   0  0  0  0  0  0  0  0  0  0  0  0
    7.4040    3.0600    0.0000 H   0  0  0  0  0  0  0  0  0  0  0  0
    4.2690   -2.3700    0.0000 H   0  0  0  0  0  0  0  0  0  0  0  0
    2.0000    1.5600    0.0000 H   0  0  0  0  0  0  0  0  0  0  0  0
    9.1360    1.4400    0.0000 H   0  0  0  0  0  0  0  0  0  0  0  0
    2.0000   -3.0600    0.0000 H   0  0  0  0  0  0  0  0  0  0  0  0
 13  1  1  1  0  0  0
  1 15  1  0  0  0  0
 11  2  1  1  0  0  0
  2 27  1  0  0  0  0
 12  3  1  1  0  0  0
  3 28  1  0  0  0  0
 14  4  1  6  0  0  0
  4 31  1  0  0  0  0
  5 16  1  0  0  0  0
  5 32  1  0  0  0  0
  6 17  1  0  0  0  0
  6 33  1  0  0  0  0
  7 17  2  0  0  0  0
  8 18  1  0  0  0  0
  8 34  1  0  0  0  0
  9 19  1  0  0  0  0
  9 35  1  0  0  0  0
 10 18  2  0  0  0  0
 11 12  1  0  0  0  0
 11 13  1  0  0  0  0
 11 20  1  0  0  0  0
 12 14  1  0  0  0  0
 12 21  1  0  0  0  0
 13 17  1  0  0  0  0
 13 22  1  0  0  0  0
 14 18  1  0  0  0  0
 14 23  1  0  0  0  0
 15 16  1  0  0  0  0
 15 24  1  0  0  0  0
 15 25  1  0  0  0  0
 16 19  1  0  0  0  0
 16 26  1  0  0  0  0
 19 29  1  0  0  0  0
 19 30  1  0  0  0  0
M  END
> <PUBCHEM_COMPOUND_CID>
57086086

> <PUBCHEM_COMPOUND_CANONICALIZED>
1

> <PUBCHEM_CACTVS_COMPLEXITY>
305

> <PUBCHEM_CACTVS_HBOND_ACCEPTOR>
10

> <PUBCHEM_CACTVS_HBOND_DONOR>
7

> <PUBCHEM_CACTVS_ROTATABLE_BOND>
9

> <PUBCHEM_CACTVS_SUBSKEYS>
AAADceBwPAAAAAAAAAAAAAAAAAAAAAAAAAAAAAAAAAAAAAAAAAAAGgAACAAACBSggAIACAAABgAIAACQCAIAAAAAAAAAAAFAAAABEBYAAAQCQAAFIAADAAHKbAxAAAAAAAAAAAAAAAAAAAAAAAAAAAAAAA==

> <PUBCHEM_IUPAC_OPENEYE_NAME>
(2R,3S,4S,5S)-2-(2,3-dihydroxypropoxy)-3,4,5-trihydroxy-hexanedioic acid

> <PUBCHEM_IUPAC_CAS_NAME>
(2R,3S,4S,5S)-2-(2,3-dihydroxypropoxy)-3,4,5-trihydroxyhexanedioic acid

> <PUBCHEM_IUPAC_NAME_MARKUP>
(2<I>R</I>,3<I>S</I>,4<I>S</I>,5<I>S</I>)-2-(2,3-dihydroxypropoxy)-3,4,5-trihydroxyhexanedioic acid

> <PUBCHEM_IUPAC_NAME>
(2R,3S,4S,5S)-2-(2,3-dihydroxypropoxy)-3,4,5-trihydroxyhexanedioic acid

> <PUBCHEM_IUPAC_SYSTEMATIC_NAME>
(2R,3S,4S,5S)-2-[2,3-bis(oxidanyl)propoxy]-3,4,5-tris(oxidanyl)hexanedioic acid

> <PUBCHEM_IUPAC_TRADITIONAL_NAME>
(2R,3S,4S,5S)-2-glyceryloxy-3,4,5-trihydroxy-adipic acid

> <PUBCHEM_IUPAC_INCHI>
InChI=1S/C9H16O10/c10-1-3(11)2-19-7(9(17)18)5(13)4(12)6(14)8(15)16/h3-7,10-14H,1-2H2,(H,15,16)(H,17,18)/t3?,4-,5-,6-,7+/m0/s1

> <PUBCHEM_IUPAC_INCHIKEY>
RQIHBKGUFWUXDR-QPAIKQDQSA-N

> <PUBCHEM_XLOGP3_AA>
-3.9

> <PUBCHEM_EXACT_MASS>
284.07434670

> <PUBCHEM_MOLECULAR_FORMULA>
C9H16O10

> <PUBCHEM_MOLECULAR_WEIGHT>
284.22

> <PUBCHEM_OPENEYE_CAN_SMILES>
C(C(COC(C(C(C(C(=O)O)O)O)O)C(=O)O)O)O

> <PUBCHEM_OPENEYE_ISO_SMILES>
C(C(CO[C@H]([C@H]([C@@H]([C@@H](C(=O)O)O)O)O)C(=O)O)O)O

> <PUBCHEM_CACTVS_TPSA>
185

> <PUBCHEM_MONOISOTOPIC_WEIGHT>
284.07434670

> <PUBCHEM_TOTAL_CHARGE>
0

> <PUBCHEM_HEAVY_ATOM_COUNT>
19

> <PUBCHEM_ATOM_DEF_STEREO_COUNT>
4

> <PUBCHEM_ATOM_UDEF_STEREO_COUNT>
1

> <PUBCHEM_BOND_DEF_STEREO_COUNT>
0

> <PUBCHEM_BOND_UDEF_STEREO_COUNT>
0

> <PUBCHEM_ISOTOPIC_ATOM_COUNT>
0

> <PUBCHEM_COMPONENT_COUNT>
1

> <PUBCHEM_CACTVS_TAUTO_COUNT>
-1

> <PUBCHEM_COORDINATE_TYPE>
1
5
255

> <PUBCHEM_BONDANNOTATIONS>
13  1  5
11  2  5
12  3  5
14  4  6
16  5  3

$$$$
