 
  -OEChem-10192104062D

 87 88  0     0  0  0  0  0  0999 V2000
    8.5991   -3.9050    0.0000 O   0  0  0  0  0  0  0  0  0  0  0  0
   12.0632   -0.9050    0.0000 O   0  0  0  0  0  0  0  0  0  0  0  0
    2.5369   -2.4050    0.0000 O   0  0  0  0  0  0  0  0  0  0  0  0
   16.3933    3.5950    0.0000 O   0  0  0  0  0  0  0  0  0  0  0  0
    3.4030   -0.9050    0.0000 O   0  0  0  0  0  0  0  0  0  0  0  0
   17.2594    2.0950    0.0000 O   0  0  0  0  0  0  0  0  0  0  0  0
    8.5991   -0.9050    0.0000 C   0  0  0  0  0  0  0  0  0  0  0  0
   14.6613   -2.4050    0.0000 C   0  0  0  0  0  0  0  0  0  0  0  0
    9.4651   -2.4050    0.0000 C   0  0  0  0  0  0  0  0  0  0  0  0
   12.9292   -2.4050    0.0000 C   0  0  0  0  0  0  0  0  0  0  0  0
    7.7331   -2.4050    0.0000 C   0  0  0  0  0  0  0  0  0  0  0  0
   13.7953   -0.9050    0.0000 C   0  0  0  0  0  0  0  0  0  0  0  0
   10.3312   -2.9050    0.0000 C   0  0  0  0  0  0  0  0  0  0  0  0
   12.0632   -2.9050    0.0000 C   0  0  0  0  0  0  0  0  0  0  0  0
   11.1972   -2.4050    0.0000 C   0  0  0  0  0  0  0  0  0  0  0  0
    6.8671   -2.9050    0.0000 C   0  0  0  0  0  0  0  0  0  0  0  0
   13.7953    0.0950    0.0000 C   0  0  0  0  0  0  0  0  0  0  0  0
    6.0010   -2.4050    0.0000 C   0  0  0  0  0  0  0  0  0  0  0  0
   14.6613    0.5950    0.0000 C   0  0  0  0  0  0  0  0  0  0  0  0
    5.1350   -2.9050    0.0000 C   0  0  0  0  0  0  0  0  0  0  0  0
   14.6613    1.5950    0.0000 C   0  0  0  0  0  0  0  0  0  0  0  0
    9.4651   -1.4050    0.0000 C   0  0  0  0  0  0  0  0  0  0  0  0
   13.7953   -2.9050    0.0000 C   0  0  0  0  0  0  0  0  0  0  0  0
    7.7331   -1.4050    0.0000 C   0  0  0  0  0  0  0  0  0  0  0  0
   14.6613   -1.4050    0.0000 C   0  0  0  0  0  0  0  0  0  0  0  0
    4.2690   -2.4050    0.0000 C   0  0  0  0  0  0  0  0  0  0  0  0
   15.5273    2.0950    0.0000 C   0  0  0  0  0  0  0  0  0  0  0  0
    8.5991   -2.9050    0.0000 C   0  0  0  0  0  0  0  0  0  0  0  0
   12.9292   -1.4050    0.0000 C   0  0  0  0  0  0  0  0  0  0  0  0
    9.0991   -0.0390    0.0000 C   0  0  0  0  0  0  0  0  0  0  0  0
    8.0991   -0.0390    0.0000 C   0  0  0  0  0  0  0  0  0  0  0  0
   15.6613   -2.4050    0.0000 C   0  0  0  0  0  0  0  0  0  0  0  0
   15.1613   -3.2710    0.0000 C   0  0  0  0  0  0  0  0  0  0  0  0
    3.7690   -3.2710    0.0000 C   0  0  0  0  0  0  0  0  0  0  0  0
    4.7690   -1.5390    0.0000 C   0  0  0  0  0  0  0  0  0  0  0  0
   15.0273    2.9610    0.0000 C   0  0  0  0  0  0  0  0  0  0  0  0
   16.0273    1.2290    0.0000 C   0  0  0  0  0  0  0  0  0  0  0  0
    3.4030   -1.9050    0.0000 C   0  0  0  0  0  0  0  0  0  0  0  0
   16.3933    2.5950    0.0000 C   0  0  0  0  0  0  0  0  0  0  0  0
    9.9326   -3.3800    0.0000 H   0  0  0  0  0  0  0  0  0  0  0  0
   10.7297   -3.3800    0.0000 H   0  0  0  0  0  0  0  0  0  0  0  0
   11.6647   -3.3800    0.0000 H   0  0  0  0  0  0  0  0  0  0  0  0
   12.4617   -3.3800    0.0000 H   0  0  0  0  0  0  0  0  0  0  0  0
   11.5957   -1.9300    0.0000 H   0  0  0  0  0  0  0  0  0  0  0  0
   10.7987   -1.9300    0.0000 H   0  0  0  0  0  0  0  0  0  0  0  0
    6.4685   -3.3800    0.0000 H   0  0  0  0  0  0  0  0  0  0  0  0
    7.2656   -3.3800    0.0000 H   0  0  0  0  0  0  0  0  0  0  0  0
   13.5832    0.6776    0.0000 H   0  0  0  0  0  0  0  0  0  0  0  0
   13.1847   -0.0127    0.0000 H   0  0  0  0  0  0  0  0  0  0  0  0
    6.3996   -1.9300    0.0000 H   0  0  0  0  0  0  0  0  0  0  0  0
    5.6025   -1.9300    0.0000 H   0  0  0  0  0  0  0  0  0  0  0  0
   14.8733    0.0124    0.0000 H   0  0  0  0  0  0  0  0  0  0  0  0
   15.2719    0.7027    0.0000 H   0  0  0  0  0  0  0  0  0  0  0  0
    4.7365   -3.3800    0.0000 H   0  0  0  0  0  0  0  0  0  0  0  0
    5.5335   -3.3800    0.0000 H   0  0  0  0  0  0  0  0  0  0  0  0
   14.4492    2.1776    0.0000 H   0  0  0  0  0  0  0  0  0  0  0  0
   14.0507    1.4873    0.0000 H   0  0  0  0  0  0  0  0  0  0  0  0
   10.0021   -1.0950    0.0000 H   0  0  0  0  0  0  0  0  0  0  0  0
   13.7953   -3.5250    0.0000 H   0  0  0  0  0  0  0  0  0  0  0  0
    7.1962   -1.0950    0.0000 H   0  0  0  0  0  0  0  0  0  0  0  0
   15.1982   -1.0950    0.0000 H   0  0  0  0  0  0  0  0  0  0  0  0
    9.6360   -0.3490    0.0000 H   0  0  0  0  0  0  0  0  0  0  0  0
    9.4091    0.4980    0.0000 H   0  0  0  0  0  0  0  0  0  0  0  0
    8.5622    0.2710    0.0000 H   0  0  0  0  0  0  0  0  0  0  0  0
    8.6360    0.2710    0.0000 H   0  0  0  0  0  0  0  0  0  0  0  0
    7.7891    0.4980    0.0000 H   0  0  0  0  0  0  0  0  0  0  0  0
    7.5622   -0.3490    0.0000 H   0  0  0  0  0  0  0  0  0  0  0  0
   15.6613   -3.0250    0.0000 H   0  0  0  0  0  0  0  0  0  0  0  0
   16.2813   -2.4050    0.0000 H   0  0  0  0  0  0  0  0  0  0  0  0
   15.6613   -1.7850    0.0000 H   0  0  0  0  0  0  0  0  0  0  0  0
   14.6244   -3.5810    0.0000 H   0  0  0  0  0  0  0  0  0  0  0  0
   15.4713   -3.8080    0.0000 H   0  0  0  0  0  0  0  0  0  0  0  0
   15.6982   -2.9610    0.0000 H   0  0  0  0  0  0  0  0  0  0  0  0
    3.2320   -2.9610    0.0000 H   0  0  0  0  0  0  0  0  0  0  0  0
    3.4590   -3.8080    0.0000 H   0  0  0  0  0  0  0  0  0  0  0  0
    4.3059   -3.5810    0.0000 H   0  0  0  0  0  0  0  0  0  0  0  0
    5.3059   -1.8490    0.0000 H   0  0  0  0  0  0  0  0  0  0  0  0
    5.0790   -1.0020    0.0000 H   0  0  0  0  0  0  0  0  0  0  0  0
    4.2320   -1.2290    0.0000 H   0  0  0  0  0  0  0  0  0  0  0  0
   15.5643    3.2710    0.0000 H   0  0  0  0  0  0  0  0  0  0  0  0
   14.7173    3.4980    0.0000 H   0  0  0  0  0  0  0  0  0  0  0  0
   14.4904    2.6510    0.0000 H   0  0  0  0  0  0  0  0  0  0  0  0
   15.4904    0.9190    0.0000 H   0  0  0  0  0  0  0  0  0  0  0  0
   16.3373    0.6920    0.0000 H   0  0  0  0  0  0  0  0  0  0  0  0
   16.5643    1.5390    0.0000 H   0  0  0  0  0  0  0  0  0  0  0  0
    2.0000   -2.0950    0.0000 H   0  0  0  0  0  0  0  0  0  0  0  0
   16.9303    3.9050    0.0000 H   0  0  0  0  0  0  0  0  0  0  0  0
  1 28  2  0  0  0  0
  2 29  2  0  0  0  0
  3 38  1  0  0  0  0
  3 86  1  0  0  0  0
  4 39  1  0  0  0  0
  4 87  1  0  0  0  0
  5 38  2  0  0  0  0
  6 39  2  0  0  0  0
  7 22  1  0  0  0  0
  7 24  1  0  0  0  0
  7 30  1  0  0  0  0
  7 31  1  0  0  0  0
  8 23  1  0  0  0  0
  8 25  1  0  0  0  0
  8 32  1  0  0  0  0
  8 33  1  0  0  0  0
  9 13  1  0  0  0  0
  9 22  2  0  0  0  0
  9 28  1  0  0  0  0
 10 14  1  0  0  0  0
 10 23  2  0  0  0  0
 10 29  1  0  0  0  0
 11 16  1  0  0  0  0
 11 24  2  0  0  0  0
 11 28  1  0  0  0  0
 12 17  1  0  0  0  0
 12 25  2  0  0  0  0
 12 29  1  0  0  0  0
 13 15  1  0  0  0  0
 13 40  1  0  0  0  0
 13 41  1  0  0  0  0
 14 15  1  0  0  0  0
 14 42  1  0  0  0  0
 14 43  1  0  0  0  0
 15 44  1  0  0  0  0
 15 45  1  0  0  0  0
 16 18  1  0  0  0  0
 16 46  1  0  0  0  0
 16 47  1  0  0  0  0
 17 19  1  0  0  0  0
 17 48  1  0  0  0  0
 17 49  1  0  0  0  0
 18 20  1  0  0  0  0
 18 50  1  0  0  0  0
 18 51  1  0  0  0  0
 19 21  1  0  0  0  0
 19 52  1  0  0  0  0
 19 53  1  0  0  0  0
 20 26  1  0  0  0  0
 20 54  1  0  0  0  0
 20 55  1  0  0  0  0
 21 27  1  0  0  0  0
 21 56  1  0  0  0  0
 21 57  1  0  0  0  0
 22 58  1  0  0  0  0
 23 59  1  0  0  0  0
 24 60  1  0  0  0  0
 25 61  1  0  0  0  0
 26 34  1  0  0  0  0
 26 35  1  0  0  0  0
 26 38  1  0  0  0  0
 27 36  1  0  0  0  0
 27 37  1  0  0  0  0
 27 39  1  0  0  0  0
 30 62  1  0  0  0  0
 30 63  1  0  0  0  0
 30 64  1  0  0  0  0
 31 65  1  0  0  0  0
 31 66  1  0  0  0  0
 31 67  1  0  0  0  0
 32 68  1  0  0  0  0
 32 69  1  0  0  0  0
 32 70  1  0  0  0  0
 33 71  1  0  0  0  0
 33 72  1  0  0  0  0
 33 73  1  0  0  0  0
 34 74  1  0  0  0  0
 34 75  1  0  0  0  0
 34 76  1  0  0  0  0
 35 77  1  0  0  0  0
 35 78  1  0  0  0  0
 35 79  1  0  0  0  0
 36 80  1  0  0  0  0
 36 81  1  0  0  0  0
 36 82  1  0  0  0  0
 37 83  1  0  0  0  0
 37 84  1  0  0  0  0
 37 85  1  0  0  0  0
M  END
> <PUBCHEM_COMPOUND_CID>
10119689

> <PUBCHEM_COMPOUND_CANONICALIZED>
1

> <PUBCHEM_CACTVS_COMPLEXITY>
1030

> <PUBCHEM_CACTVS_HBOND_ACCEPTOR>
6

> <PUBCHEM_CACTVS_HBOND_DONOR>
2

> <PUBCHEM_CACTVS_ROTATABLE_BOND>
14

> <PUBCHEM_CACTVS_SUBSKEYS>
AAADcfB8OAAAAAAAAAAAAAAAAAAAAAAAAAAgQAAAAAAAAAAAAAAAGgAACAAADgSAgAACCAAAAgCIAqDSCAAAAAAgAAAACAEAAEgAABIAAQAAQAAEgAAIAYOIyOCNAAAAAAAAAAAAAAAAAAAAAAAAAAAAAA==

> <PUBCHEM_IUPAC_OPENEYE_NAME>
5-[5-[3-[5-(4-carboxy-4-methyl-pentyl)-3,3-dimethyl-6-oxo-cyclohexa-1,4-dien-1-yl]propyl]-3,3-dimethyl-6-oxo-cyclohexa-1,4-dien-1-yl]-2,2-dimethyl-pentanoic acid

> <PUBCHEM_IUPAC_CAS_NAME>
5-[5-[3-[5-(4-carboxy-4-methylpentyl)-3,3-dimethyl-6-oxo-1-cyclohexa-1,4-dienyl]propyl]-3,3-dimethyl-6-oxo-1-cyclohexa-1,4-dienyl]-2,2-dimethylpentanoic acid

> <PUBCHEM_IUPAC_NAME_MARKUP>
5-[5-[3-[5-(4-carboxy-4-methylpentyl)-3,3-dimethyl-6-oxocyclohexa-1,4-dien-1-yl]propyl]-3,3-dimethyl-6-oxocyclohexa-1,4-dien-1-yl]-2,2-dimethylpentanoic acid

> <PUBCHEM_IUPAC_NAME>
5-[5-[3-[5-(4-carboxy-4-methylpentyl)-3,3-dimethyl-6-oxocyclohexa-1,4-dien-1-yl]propyl]-3,3-dimethyl-6-oxocyclohexa-1,4-dien-1-yl]-2,2-dimethylpentanoic acid

> <PUBCHEM_IUPAC_SYSTEMATIC_NAME>
5-[5-[3-[5-(4,4-dimethyl-5-oxidanyl-5-oxidanylidene-pentyl)-3,3-dimethyl-6-oxidanylidene-cyclohexa-1,4-dien-1-yl]propyl]-3,3-dimethyl-6-oxidanylidene-cyclohexa-1,4-dien-1-yl]-2,2-dimethyl-pentanoic acid

> <PUBCHEM_IUPAC_TRADITIONAL_NAME>
5-[5-[3-[5-(4-carboxy-4-methyl-pentyl)-6-keto-3,3-dimethyl-cyclohexa-1,4-dien-1-yl]propyl]-6-keto-3,3-dimethyl-cyclohexa-1,4-dien-1-yl]-2,2-dimethyl-valeric acid

> <PUBCHEM_IUPAC_INCHI>
InChI=1S/C33H48O6/c1-30(2)18-22(26(34)24(20-30)14-10-16-32(5,6)28(36)37)12-9-13-23-19-31(3,4)21-25(27(23)35)15-11-17-33(7,8)29(38)39/h18-21H,9-17H2,1-8H3,(H,36,37)(H,38,39)

> <PUBCHEM_IUPAC_INCHIKEY>
PLCSHGMTMIKDKQ-UHFFFAOYSA-N

> <PUBCHEM_XLOGP3_AA>
8

> <PUBCHEM_EXACT_MASS>
540.34508925

> <PUBCHEM_MOLECULAR_FORMULA>
C33H48O6

> <PUBCHEM_MOLECULAR_WEIGHT>
540.7

> <PUBCHEM_OPENEYE_CAN_SMILES>
CC1(C=C(C(=O)C(=C1)CCCC(C)(C)C(=O)O)CCCC2=CC(C=C(C2=O)CCCC(C)(C)C(=O)O)(C)C)C

> <PUBCHEM_OPENEYE_ISO_SMILES>
CC1(C=C(C(=O)C(=C1)CCCC(C)(C)C(=O)O)CCCC2=CC(C=C(C2=O)CCCC(C)(C)C(=O)O)(C)C)C

> <PUBCHEM_CACTVS_TPSA>
109

> <PUBCHEM_MONOISOTOPIC_WEIGHT>
540.34508925

> <PUBCHEM_TOTAL_CHARGE>
0

> <PUBCHEM_HEAVY_ATOM_COUNT>
39

> <PUBCHEM_ATOM_DEF_STEREO_COUNT>
0

> <PUBCHEM_ATOM_UDEF_STEREO_COUNT>
0

> <PUBCHEM_BOND_DEF_STEREO_COUNT>
0

> <PUBCHEM_BOND_UDEF_STEREO_COUNT>
0

> <PUBCHEM_ISOTOPIC_ATOM_COUNT>
0

> <PUBCHEM_COMPONENT_COUNT>
1

> <PUBCHEM_CACTVS_TAUTO_COUNT>
-1

> <PUBCHEM_COORDINATE_TYPE>
1
5
255

$$$$
