 
  -OEChem-10192104162D

 64 65  0     1  0  0  0  0  0999 V2000
   10.3312    2.0600    0.0000 O   0  0  0  0  0  0  0  0  0  0  0  0
    8.5991    0.0600    0.0000 O   0  0  0  0  0  0  0  0  0  0  0  0
    5.1350   -0.9400    0.0000 O   0  0  0  0  0  0  0  0  0  0  0  0
    6.0010    0.5600    0.0000 O   0  0  0  0  0  0  0  0  0  0  0  0
   12.0632    2.0600    0.0000 O   0  0  0  0  0  0  0  0  0  0  0  0
   10.3312   -0.9400    0.0000 O   0  0  0  0  0  0  0  0  0  0  0  0
   12.0632    0.0600    0.0000 O   0  0  0  0  0  0  0  0  0  0  0  0
    2.5369    0.5600    0.0000 O   0  0  0  0  0  0  0  0  0  0  0  0
    4.2690    1.5600    0.0000 O   0  0  0  0  0  0  0  0  0  0  0  0
    2.5369   -1.4400    0.0000 O   0  0  0  0  0  0  0  0  0  0  0  0
    8.5991    3.0600    0.0000 O   0  0  0  0  0  0  0  0  0  0  0  0
    3.4030   -2.9400    0.0000 O   0  0  0  0  0  0  0  0  0  0  0  0
    9.4651    0.5600    0.0000 C   0  0  3  0  0  0  0  0  0  0  0  0
   10.3312    0.0600    0.0000 C   0  0  3  0  0  0  0  0  0  0  0  0
    9.4651    1.5600    0.0000 C   0  0  3  0  0  0  0  0  0  0  0  0
   11.1972    0.5600    0.0000 C   0  0  3  0  0  0  0  0  0  0  0  0
   11.1972    1.5600    0.0000 C   0  0  3  0  0  0  0  0  0  0  0  0
    3.4030    0.0600    0.0000 C   0  0  3  0  0  0  0  0  0  0  0  0
    4.2690    0.5600    0.0000 C   0  0  3  0  0  0  0  0  0  0  0  0
    3.4030   -0.9400    0.0000 C   0  0  3  0  0  0  0  0  0  0  0  0
    5.1350    0.0600    0.0000 C   0  0  3  0  0  0  0  0  0  0  0  0
    4.2690   -1.4400    0.0000 C   0  0  3  0  0  0  0  0  0  0  0  0
    6.8671    0.0600    0.0000 C   0  0  3  0  0  0  0  0  0  0  0  0
    7.7331    0.5600    0.0000 C   0  0  0  0  0  0  0  0  0  0  0  0
    8.5991    2.0600    0.0000 C   0  0  0  0  0  0  0  0  0  0  0  0
    4.2690   -2.4400    0.0000 C   0  0  0  0  0  0  0  0  0  0  0  0
    6.8671   -0.9400    0.0000 C   0  0  0  0  0  0  0  0  0  0  0  0
   12.0632    3.0600    0.0000 C   0  0  0  0  0  0  0  0  0  0  0  0
   12.9292    3.5600    0.0000 C   0  0  0  0  0  0  0  0  0  0  0  0
   11.1972    3.5600    0.0000 C   0  0  0  0  0  0  0  0  0  0  0  0
    9.4651   -0.0600    0.0000 H   0  0  0  0  0  0  0  0  0  0  0  0
   10.8681   -0.2500    0.0000 H   0  0  0  0  0  0  0  0  0  0  0  0
    9.4651    2.1800    0.0000 H   0  0  0  0  0  0  0  0  0  0  0  0
   11.7341    0.8700    0.0000 H   0  0  0  0  0  0  0  0  0  0  0  0
   11.1972    2.1800    0.0000 H   0  0  0  0  0  0  0  0  0  0  0  0
    3.9399   -0.2500    0.0000 H   0  0  0  0  0  0  0  0  0  0  0  0
    3.7320    0.8700    0.0000 H   0  0  0  0  0  0  0  0  0  0  0  0
    3.4030   -1.5600    0.0000 H   0  0  0  0  0  0  0  0  0  0  0  0
    5.1350    0.6800    0.0000 H   0  0  0  0  0  0  0  0  0  0  0  0
    4.8059   -1.7500    0.0000 H   0  0  0  0  0  0  0  0  0  0  0  0
    6.3301   -0.2500    0.0000 H   0  0  0  0  0  0  0  0  0  0  0  0
    8.1316    1.0350    0.0000 H   0  0  0  0  0  0  0  0  0  0  0  0
    7.3346    1.0350    0.0000 H   0  0  0  0  0  0  0  0  0  0  0  0
    7.9885    2.1677    0.0000 H   0  0  0  0  0  0  0  0  0  0  0  0
    8.3871    1.4774    0.0000 H   0  0  0  0  0  0  0  0  0  0  0  0
    4.4810   -3.0226    0.0000 H   0  0  0  0  0  0  0  0  0  0  0  0
    4.8796   -2.3323    0.0000 H   0  0  0  0  0  0  0  0  0  0  0  0
   10.8681   -1.2500    0.0000 H   0  0  0  0  0  0  0  0  0  0  0  0
   12.6002    0.3700    0.0000 H   0  0  0  0  0  0  0  0  0  0  0  0
    6.2471   -0.9400    0.0000 H   0  0  0  0  0  0  0  0  0  0  0  0
    6.8671   -1.5600    0.0000 H   0  0  0  0  0  0  0  0  0  0  0  0
    7.4871   -0.9400    0.0000 H   0  0  0  0  0  0  0  0  0  0  0  0
   12.6002    2.7500    0.0000 H   0  0  0  0  0  0  0  0  0  0  0  0
    2.0000    0.2500    0.0000 H   0  0  0  0  0  0  0  0  0  0  0  0
    3.7320    1.8700    0.0000 H   0  0  0  0  0  0  0  0  0  0  0  0
    2.0000   -1.1300    0.0000 H   0  0  0  0  0  0  0  0  0  0  0  0
    8.0622    3.3700    0.0000 H   0  0  0  0  0  0  0  0  0  0  0  0
   13.2392    3.0231    0.0000 H   0  0  0  0  0  0  0  0  0  0  0  0
   13.4662    3.8700    0.0000 H   0  0  0  0  0  0  0  0  0  0  0  0
   12.6192    4.0969    0.0000 H   0  0  0  0  0  0  0  0  0  0  0  0
   11.5072    4.0969    0.0000 H   0  0  0  0  0  0  0  0  0  0  0  0
   10.6603    3.8700    0.0000 H   0  0  0  0  0  0  0  0  0  0  0  0
   10.8872    3.0231    0.0000 H   0  0  0  0  0  0  0  0  0  0  0  0
    3.4030   -3.5600    0.0000 H   0  0  0  0  0  0  0  0  0  0  0  0
  1 15  1  0  0  0  0
  1 17  1  0  0  0  0
  2 13  1  0  0  0  0
  2 24  1  0  0  0  0
  3 21  1  0  0  0  0
  3 22  1  0  0  0  0
  4 21  1  0  0  0  0
  4 23  1  0  0  0  0
  5 17  1  0  0  0  0
  5 28  1  0  0  0  0
  6 14  1  0  0  0  0
  6 48  1  0  0  0  0
  7 16  1  0  0  0  0
  7 49  1  0  0  0  0
  8 18  1  0  0  0  0
  8 54  1  0  0  0  0
  9 19  1  0  0  0  0
  9 55  1  0  0  0  0
 10 20  1  0  0  0  0
 10 56  1  0  0  0  0
 11 25  1  0  0  0  0
 11 57  1  0  0  0  0
 12 26  1  0  0  0  0
 12 64  1  0  0  0  0
 13 14  1  0  0  0  0
 13 15  1  0  0  0  0
 13 31  1  0  0  0  0
 14 16  1  0  0  0  0
 14 32  1  0  0  0  0
 15 25  1  0  0  0  0
 15 33  1  0  0  0  0
 16 17  1  0  0  0  0
 16 34  1  0  0  0  0
 17 35  1  0  0  0  0
 18 19  1  0  0  0  0
 18 20  1  0  0  0  0
 18 36  1  0  0  0  0
 19 21  1  0  0  0  0
 19 37  1  0  0  0  0
 20 22  1  0  0  0  0
 20 38  1  0  0  0  0
 21 39  1  0  0  0  0
 22 26  1  0  0  0  0
 22 40  1  0  0  0  0
 23 24  1  0  0  0  0
 23 27  1  0  0  0  0
 23 41  1  0  0  0  0
 24 42  1  0  0  0  0
 24 43  1  0  0  0  0
 25 44  1  0  0  0  0
 25 45  1  0  0  0  0
 26 46  1  0  0  0  0
 26 47  1  0  0  0  0
 27 50  1  0  0  0  0
 27 51  1  0  0  0  0
 27 52  1  0  0  0  0
 28 29  1  0  0  0  0
 28 30  1  0  0  0  0
 28 53  1  0  0  0  0
 29 58  1  0  0  0  0
 29 59  1  0  0  0  0
 29 60  1  0  0  0  0
 30 61  1  0  0  0  0
 30 62  1  0  0  0  0
 30 63  1  0  0  0  0
M  END
> <PUBCHEM_COMPOUND_CID>
130253313

> <PUBCHEM_COMPOUND_CANONICALIZED>
1

> <PUBCHEM_CACTVS_COMPLEXITY>
508

> <PUBCHEM_CACTVS_HBOND_ACCEPTOR>
12

> <PUBCHEM_CACTVS_HBOND_DONOR>
7

> <PUBCHEM_CACTVS_ROTATABLE_BOND>
9

> <PUBCHEM_CACTVS_SUBSKEYS>
AAADcfB4PAAAAAAAAAAAAAAAAAAAAAAAAAAkSAAAAAAAAAAAAAAAGgAACAAACBSwgAMCCAAABgAAAAAAAAAAAAAAAAAAAAAAAAAREAIAAAAiQAAFAAAHAAHAYAwAAAAAAAAAAAAAAAAAAAAAAAAAAAAAAA==

> <PUBCHEM_IUPAC_OPENEYE_NAME>
2-[2-[4,5-dihydroxy-2-(hydroxymethyl)-6-isopropoxy-tetrahydropyran-3-yl]oxy-1-methyl-ethoxy]-6-(hydroxymethyl)tetrahydropyran-3,4,5-triol

> <PUBCHEM_IUPAC_CAS_NAME>
2-[1-[[4,5-dihydroxy-2-(hydroxymethyl)-6-propan-2-yloxy-3-oxanyl]oxy]propan-2-yloxy]-6-(hydroxymethyl)oxane-3,4,5-triol

> <PUBCHEM_IUPAC_NAME_MARKUP>
2-[1-[4,5-dihydroxy-2-(hydroxymethyl)-6-propan-2-yloxyoxan-3-yl]oxypropan-2-yloxy]-6-(hydroxymethyl)oxane-3,4,5-triol

> <PUBCHEM_IUPAC_NAME>
2-[1-[4,5-dihydroxy-2-(hydroxymethyl)-6-propan-2-yloxyoxan-3-yl]oxypropan-2-yloxy]-6-(hydroxymethyl)oxane-3,4,5-triol

> <PUBCHEM_IUPAC_SYSTEMATIC_NAME>
2-(hydroxymethyl)-6-[1-[2-(hydroxymethyl)-4,5-bis(oxidanyl)-6-propan-2-yloxy-oxan-3-yl]oxypropan-2-yloxy]oxane-3,4,5-triol

> <PUBCHEM_IUPAC_TRADITIONAL_NAME>
2-[2-(4,5-dihydroxy-6-isopropoxy-2-methylol-tetrahydropyran-3-yl)oxy-1-methyl-ethoxy]-6-methylol-tetrahydropyran-3,4,5-triol

> <PUBCHEM_IUPAC_INCHI>
InChI=1S/C18H34O12/c1-7(2)27-17-15(25)13(23)16(10(5-20)30-17)26-6-8(3)28-18-14(24)12(22)11(21)9(4-19)29-18/h7-25H,4-6H2,1-3H3

> <PUBCHEM_IUPAC_INCHIKEY>
GBLCPWCNSFUXJS-UHFFFAOYSA-N

> <PUBCHEM_XLOGP3_AA>
-3.1

> <PUBCHEM_EXACT_MASS>
442.20502652

> <PUBCHEM_MOLECULAR_FORMULA>
C18H34O12

> <PUBCHEM_MOLECULAR_WEIGHT>
442.5

> <PUBCHEM_OPENEYE_CAN_SMILES>
CC(C)OC1C(C(C(C(O1)CO)OCC(C)OC2C(C(C(C(O2)CO)O)O)O)O)O

> <PUBCHEM_OPENEYE_ISO_SMILES>
CC(C)OC1C(C(C(C(O1)CO)OCC(C)OC2C(C(C(C(O2)CO)O)O)O)O)O

> <PUBCHEM_CACTVS_TPSA>
188

> <PUBCHEM_MONOISOTOPIC_WEIGHT>
442.20502652

> <PUBCHEM_TOTAL_CHARGE>
0

> <PUBCHEM_HEAVY_ATOM_COUNT>
30

> <PUBCHEM_ATOM_DEF_STEREO_COUNT>
0

> <PUBCHEM_ATOM_UDEF_STEREO_COUNT>
11

> <PUBCHEM_BOND_DEF_STEREO_COUNT>
0

> <PUBCHEM_BOND_UDEF_STEREO_COUNT>
0

> <PUBCHEM_ISOTOPIC_ATOM_COUNT>
0

> <PUBCHEM_COMPONENT_COUNT>
1

> <PUBCHEM_CACTVS_TAUTO_COUNT>
-1

> <PUBCHEM_COORDINATE_TYPE>
1
5
255

> <PUBCHEM_BONDANNOTATIONS>
20  10  3
15  25  3
13  2  3
22  26  3
23  27  3
21  4  3
17  5  3
14  6  3
16  7  3
18  8  3
19  9  3

$$$$
