 
  -OEChem-10192103282D

 74 75  0     1  0  0  0  0  0999 V2000
   12.4203    7.7094    0.0000 P   0  0  0  0  0  0  0  0  0  0  0  0
   11.5543    7.2094    0.0000 O   0  0  0  0  0  0  0  0  0  0  0  0
    9.8222    4.2094    0.0000 O   0  0  0  0  0  0  0  0  0  0  0  0
    9.8222    6.2094    0.0000 O   0  0  0  0  0  0  0  0  0  0  0  0
   13.2864    6.2094    0.0000 O   0  0  0  0  0  0  0  0  0  0  0  0
   11.5543    3.2094    0.0000 O   0  0  0  0  0  0  0  0  0  0  0  0
   13.2864    4.2094    0.0000 O   0  0  0  0  0  0  0  0  0  0  0  0
   13.2864    8.2094    0.0000 O   0  0  0  0  0  0  0  0  0  0  0  0
   11.9203    8.5754    0.0000 O   0  0  0  0  0  0  0  0  0  0  0  0
   12.9203    6.8434    0.0000 O   0  0  0  0  0  0  0  0  0  0  0  0
   10.6883    2.7094    0.0000 O   0  0  0  0  0  0  0  0  0  0  0  0
    3.7601   -6.2906    0.0000 O   0  0  0  0  0  0  0  0  0  0  0  0
    7.2242   -3.2906    0.0000 O   0  0  0  0  0  0  0  0  0  0  0  0
    2.0000   -7.5694    0.0000 O   0  0  0  0  0  0  0  0  0  0  0  0
    5.5202   -7.5694    0.0000 O   0  0  0  0  0  0  0  0  0  0  0  0
    5.4921   -6.2906    0.0000 O   0  0  0  0  0  0  0  0  0  0  0  0
    8.9562    2.7094    0.0000 N   0  0  0  0  0  0  0  0  0  0  0  0
    6.3582   -1.7906    0.0000 N   0  0  0  0  0  0  0  0  0  0  0  0
    3.7601   -7.2906    0.0000 N   0  0  0  0  0  0  0  0  0  0  0  0
   11.5543    6.2094    0.0000 C   0  0  2  0  0  0  0  0  0  0  0  0
   10.6883    4.7094    0.0000 C   0  0  1  0  0  0  0  0  0  0  0  0
   10.6883    5.7094    0.0000 C   0  0  1  0  0  0  0  0  0  0  0  0
   12.4203    5.7094    0.0000 C   0  0  1  0  0  0  0  0  0  0  0  0
   11.5543    4.2094    0.0000 C   0  0  2  0  0  0  0  0  0  0  0  0
   12.4203    4.7094    0.0000 C   0  0  2  0  0  0  0  0  0  0  0  0
    9.8222    3.2094    0.0000 C   0  0  0  0  0  0  0  0  0  0  0  0
    8.9562    1.7094    0.0000 C   0  0  0  0  0  0  0  0  0  0  0  0
    8.0902    1.2094    0.0000 C   0  0  0  0  0  0  0  0  0  0  0  0
    8.0902    0.2094    0.0000 C   0  0  0  0  0  0  0  0  0  0  0  0
    7.2242   -0.2906    0.0000 C   0  0  0  0  0  0  0  0  0  0  0  0
    7.2242   -1.2906    0.0000 C   0  0  0  0  0  0  0  0  0  0  0  0
    5.4921   -3.2906    0.0000 C   0  0  0  0  0  0  0  0  0  0  0  0
    6.3582   -2.7906    0.0000 C   0  0  0  0  0  0  0  0  0  0  0  0
    5.4921   -4.2906    0.0000 C   0  0  0  0  0  0  0  0  0  0  0  0
    4.6261   -4.7906    0.0000 C   0  0  0  0  0  0  0  0  0  0  0  0
    3.2601   -8.8294    0.0000 C   0  0  0  0  0  0  0  0  0  0  0  0
    4.2601   -8.8294    0.0000 C   0  0  0  0  0  0  0  0  0  0  0  0
    2.9511   -7.8784    0.0000 C   0  0  0  0  0  0  0  0  0  0  0  0
    4.5691   -7.8784    0.0000 C   0  0  0  0  0  0  0  0  0  0  0  0
    4.6261   -5.7906    0.0000 C   0  0  0  0  0  0  0  0  0  0  0  0
   12.0912    6.5194    0.0000 H   0  0  0  0  0  0  0  0  0  0  0  0
   10.1513    5.0194    0.0000 H   0  0  0  0  0  0  0  0  0  0  0  0
   10.6883    6.3294    0.0000 H   0  0  0  0  0  0  0  0  0  0  0  0
   12.9573    5.3994    0.0000 H   0  0  0  0  0  0  0  0  0  0  0  0
   12.0912    3.8994    0.0000 H   0  0  0  0  0  0  0  0  0  0  0  0
   12.9573    5.0194    0.0000 H   0  0  0  0  0  0  0  0  0  0  0  0
    9.2853    5.8994    0.0000 H   0  0  0  0  0  0  0  0  0  0  0  0
   13.8233    5.8994    0.0000 H   0  0  0  0  0  0  0  0  0  0  0  0
   12.0912    2.8994    0.0000 H   0  0  0  0  0  0  0  0  0  0  0  0
   13.2864    3.5894    0.0000 H   0  0  0  0  0  0  0  0  0  0  0  0
    8.4193    3.0194    0.0000 H   0  0  0  0  0  0  0  0  0  0  0  0
    9.1683    1.1268    0.0000 H   0  0  0  0  0  0  0  0  0  0  0  0
    9.5668    1.8171    0.0000 H   0  0  0  0  0  0  0  0  0  0  0  0
    7.8782    1.7920    0.0000 H   0  0  0  0  0  0  0  0  0  0  0  0
    7.4796    1.1018    0.0000 H   0  0  0  0  0  0  0  0  0  0  0  0
   13.2864    8.8294    0.0000 H   0  0  0  0  0  0  0  0  0  0  0  0
   11.3003    8.5754    0.0000 H   0  0  0  0  0  0  0  0  0  0  0  0
    8.3023   -0.3732    0.0000 H   0  0  0  0  0  0  0  0  0  0  0  0
    8.7008    0.3171    0.0000 H   0  0  0  0  0  0  0  0  0  0  0  0
    7.0121    0.2920    0.0000 H   0  0  0  0  0  0  0  0  0  0  0  0
    6.6136   -0.3982    0.0000 H   0  0  0  0  0  0  0  0  0  0  0  0
    7.4362   -1.8732    0.0000 H   0  0  0  0  0  0  0  0  0  0  0  0
    7.8348   -1.1829    0.0000 H   0  0  0  0  0  0  0  0  0  0  0  0
    5.8212   -1.4806    0.0000 H   0  0  0  0  0  0  0  0  0  0  0  0
    5.2801   -2.7080    0.0000 H   0  0  0  0  0  0  0  0  0  0  0  0
    4.8815   -3.3982    0.0000 H   0  0  0  0  0  0  0  0  0  0  0  0
    5.7042   -4.8732    0.0000 H   0  0  0  0  0  0  0  0  0  0  0  0
    6.1027   -4.1829    0.0000 H   0  0  0  0  0  0  0  0  0  0  0  0
    4.4140   -4.2080    0.0000 H   0  0  0  0  0  0  0  0  0  0  0  0
    4.0155   -4.8982    0.0000 H   0  0  0  0  0  0  0  0  0  0  0  0
    2.6536   -8.9583    0.0000 H   0  0  0  0  0  0  0  0  0  0  0  0
    3.3249   -9.4460    0.0000 H   0  0  0  0  0  0  0  0  0  0  0  0
    4.1953   -9.4460    0.0000 H   0  0  0  0  0  0  0  0  0  0  0  0
    4.8665   -8.9583    0.0000 H   0  0  0  0  0  0  0  0  0  0  0  0
  1  2  1  0  0  0  0
  1  8  1  0  0  0  0
  1  9  1  0  0  0  0
  1 10  2  0  0  0  0
 20  2  1  1  0  0  0
 21  3  1  1  0  0  0
  3 26  1  0  0  0  0
 22  4  1  1  0  0  0
  4 47  1  0  0  0  0
 23  5  1  6  0  0  0
  5 48  1  0  0  0  0
 24  6  1  6  0  0  0
  6 49  1  0  0  0  0
 25  7  1  1  0  0  0
  7 50  1  0  0  0  0
  8 56  1  0  0  0  0
  9 57  1  0  0  0  0
 11 26  2  0  0  0  0
 12 19  1  0  0  0  0
 12 40  1  0  0  0  0
 13 33  2  0  0  0  0
 14 38  2  0  0  0  0
 15 39  2  0  0  0  0
 16 40  2  0  0  0  0
 17 26  1  0  0  0  0
 17 27  1  0  0  0  0
 17 51  1  0  0  0  0
 18 31  1  0  0  0  0
 18 33  1  0  0  0  0
 18 64  1  0  0  0  0
 19 38  1  0  0  0  0
 19 39  1  0  0  0  0
 20 22  1  0  0  0  0
 20 23  1  0  0  0  0
 20 41  1  0  0  0  0
 21 22  1  0  0  0  0
 21 24  1  0  0  0  0
 21 42  1  0  0  0  0
 22 43  1  0  0  0  0
 23 25  1  0  0  0  0
 23 44  1  0  0  0  0
 24 25  1  0  0  0  0
 24 45  1  0  0  0  0
 25 46  1  0  0  0  0
 27 28  1  0  0  0  0
 27 52  1  0  0  0  0
 27 53  1  0  0  0  0
 28 29  1  0  0  0  0
 28 54  1  0  0  0  0
 28 55  1  0  0  0  0
 29 30  1  0  0  0  0
 29 58  1  0  0  0  0
 29 59  1  0  0  0  0
 30 31  1  0  0  0  0
 30 60  1  0  0  0  0
 30 61  1  0  0  0  0
 31 62  1  0  0  0  0
 31 63  1  0  0  0  0
 32 33  1  0  0  0  0
 32 34  1  0  0  0  0
 32 65  1  0  0  0  0
 32 66  1  0  0  0  0
 34 35  1  0  0  0  0
 34 67  1  0  0  0  0
 34 68  1  0  0  0  0
 35 40  1  0  0  0  0
 35 69  1  0  0  0  0
 35 70  1  0  0  0  0
 36 37  1  0  0  0  0
 36 38  1  0  0  0  0
 36 71  1  0  0  0  0
 36 72  1  0  0  0  0
 37 39  1  0  0  0  0
 37 73  1  0  0  0  0
 37 74  1  0  0  0  0
M  END
> <PUBCHEM_COMPOUND_CID>
89668192

> <PUBCHEM_COMPOUND_CANONICALIZED>
1

> <PUBCHEM_CACTVS_COMPLEXITY>
959

> <PUBCHEM_CACTVS_HBOND_ACCEPTOR>
15

> <PUBCHEM_CACTVS_HBOND_DONOR>
8

> <PUBCHEM_CACTVS_ROTATABLE_BOND>
16

> <PUBCHEM_CACTVS_SUBSKEYS>
AAADcfB7PAIAAAAAAAAAAAAAAAAAAWAAAAAwAAAAAAAAAAAAAAAAHgAUCCAACBThgAYACALQBxAIQAGQGIAAAAAAAAAgAIEIAAEBEBIAgAAMQAAFFiCDAAHddw4AAAAAAAAAAAACAAAQAACAAAAAAAAAAA==

> <PUBCHEM_IUPAC_OPENEYE_NAME>
(2,5-dioxopyrrolidin-1-yl) 5-oxo-5-[5-[[(1R,2S,3S,4R,5S,6R)-2,3,4,6-tetrahydroxy-5-phosphonooxy-cyclohexoxy]carbonylamino]pentylamino]pentanoate

> <PUBCHEM_IUPAC_CAS_NAME>
5-oxo-5-[5-[[oxo-[(1R,2S,3S,4R,5S,6R)-2,3,4,6-tetrahydroxy-5-phosphonooxycyclohexyl]oxymethyl]amino]pentylamino]pentanoic acid (2,5-dioxo-1-pyrrolidinyl) ester

> <PUBCHEM_IUPAC_NAME_MARKUP>
(2,5-dioxopyrrolidin-1-yl) 5-oxo-5-[5-[[(1<I>R</I>,2<I>S</I>,3<I>S</I>,4<I>R</I>,5<I>S</I>,6<I>R</I>)-2,3,4,6-tetrahydroxy-5-phosphonooxycyclohexyl]oxycarbonylamino]pentylamino]pentanoate

> <PUBCHEM_IUPAC_NAME>
(2,5-dioxopyrrolidin-1-yl) 5-oxo-5-[5-[[(1R,2S,3S,4R,5S,6R)-2,3,4,6-tetrahydroxy-5-phosphonooxycyclohexyl]oxycarbonylamino]pentylamino]pentanoate

> <PUBCHEM_IUPAC_SYSTEMATIC_NAME>
[2,5-bis(oxidanylidene)pyrrolidin-1-yl] 5-oxidanylidene-5-[5-[[(1R,2S,3S,4R,5S,6R)-2,3,4,6-tetrakis(oxidanyl)-5-phosphonooxy-cyclohexyl]oxycarbonylamino]pentylamino]pentanoate

> <PUBCHEM_IUPAC_TRADITIONAL_NAME>
5-keto-5-[5-[[(1R,2S,3S,4R,5S,6R)-2,3,4,6-tetrahydroxy-5-phosphonooxy-cyclohexoxy]carbonylamino]pentylamino]valeric acid succinimido ester

> <PUBCHEM_IUPAC_INCHI>
InChI=1S/C21H34N3O15P/c25-11(5-4-6-14(28)38-24-12(26)7-8-13(24)27)22-9-2-1-3-10-23-21(33)37-19-16(30)15(29)17(31)20(18(19)32)39-40(34,35)36/h15-20,29-32H,1-10H2,(H,22,25)(H,23,33)(H2,34,35,36)/t15-,16-,17+,18+,19+,20-/m0/s1

> <PUBCHEM_IUPAC_INCHIKEY>
CRDKZHKDMFKDDW-XHHHBCLVSA-N

> <PUBCHEM_XLOGP3_AA>
-4.8

> <PUBCHEM_EXACT_MASS>
599.17275438

> <PUBCHEM_MOLECULAR_FORMULA>
C21H34N3O15P

> <PUBCHEM_MOLECULAR_WEIGHT>
599.5

> <PUBCHEM_OPENEYE_CAN_SMILES>
C1CC(=O)N(C1=O)OC(=O)CCCC(=O)NCCCCCNC(=O)OC2C(C(C(C(C2O)OP(=O)(O)O)O)O)O

> <PUBCHEM_OPENEYE_ISO_SMILES>
C1CC(=O)N(C1=O)OC(=O)CCCC(=O)NCCCCCNC(=O)O[C@@H]2[C@H]([C@@H]([C@H]([C@@H]([C@@H]2O)OP(=O)(O)O)O)O)O

> <PUBCHEM_CACTVS_TPSA>
279

> <PUBCHEM_MONOISOTOPIC_WEIGHT>
599.17275438

> <PUBCHEM_TOTAL_CHARGE>
0

> <PUBCHEM_HEAVY_ATOM_COUNT>
40

> <PUBCHEM_ATOM_DEF_STEREO_COUNT>
6

> <PUBCHEM_ATOM_UDEF_STEREO_COUNT>
0

> <PUBCHEM_BOND_DEF_STEREO_COUNT>
0

> <PUBCHEM_BOND_UDEF_STEREO_COUNT>
0

> <PUBCHEM_ISOTOPIC_ATOM_COUNT>
0

> <PUBCHEM_COMPONENT_COUNT>
1

> <PUBCHEM_CACTVS_TAUTO_COUNT>
-1

> <PUBCHEM_COORDINATE_TYPE>
1
5
255

> <PUBCHEM_BONDANNOTATIONS>
20  2  5
21  3  5
22  4  5
23  5  6
24  6  6
25  7  5

$$$$
