 
  -OEChem-10192104242D

 81 83  0     1  0  0  0  0  0999 V2000
    8.5991    2.5000    0.0000 S   0  0  0  0  0  0  0  0  0  0  0  0
    6.0010    1.0000    0.0000 O   0  0  0  0  0  0  0  0  0  0  0  0
    7.7331   -1.0000    0.0000 O   0  0  0  0  0  0  0  0  0  0  0  0
    6.8671    2.5000    0.0000 O   0  0  0  0  0  0  0  0  0  0  0  0
    7.7331    2.0000    0.0000 O   0  0  0  0  0  0  0  0  0  0  0  0
    6.0010   -2.0000    0.0000 O   0  0  0  0  0  0  0  0  0  0  0  0
    4.2690   -2.0000    0.0000 O   0  0  0  0  0  0  0  0  0  0  0  0
    4.2690    4.0000    0.0000 O   0  0  0  0  0  0  0  0  0  0  0  0
    9.4651   -1.0000    0.0000 O   0  0  0  0  0  0  0  0  0  0  0  0
    6.0010    5.0000    0.0000 O   0  0  0  0  0  0  0  0  0  0  0  0
    6.0010   -4.0000    0.0000 O   0  0  0  0  0  0  0  0  0  0  0  0
    4.2690   -5.0000    0.0000 O   0  0  0  0  0  0  0  0  0  0  0  0
    2.5369   -4.0000    0.0000 O   0  0  0  0  0  0  0  0  0  0  0  0
    7.7331    5.0000    0.0000 O   0  0  0  0  0  0  0  0  0  0  0  0
    9.4651    3.0000    0.0000 O   0  0  0  0  0  0  0  0  0  0  0  0
    9.0991    1.6340    0.0000 O   0  0  0  0  0  0  0  0  0  0  0  0
    8.5991    3.5000    0.0000 O   0  0  0  0  0  0  0  0  0  0  0  0
   10.3312   -0.5000    0.0000 O   0  0  0  0  0  0  0  0  0  0  0  0
    3.4030    3.5000    0.0000 O   0  0  0  0  0  0  0  0  0  0  0  0
    9.4651    1.0000    0.0000 N   0  0  0  0  0  0  0  0  0  0  0  0
    4.2690    2.0000    0.0000 N   0  0  0  0  0  0  0  0  0  0  0  0
    6.8671    0.5000    0.0000 C   0  0  1  0  0  0  0  0  0  0  0  0
    7.7331    1.0000    0.0000 C   0  0  1  0  0  0  0  0  0  0  0  0
    6.8671   -0.5000    0.0000 C   0  0  1  0  0  0  0  0  0  0  0  0
    8.5991    0.5000    0.0000 C   0  0  2  0  0  0  0  0  0  0  0  0
    6.0010    2.0000    0.0000 C   0  0  2  0  0  0  0  0  0  0  0  0
    5.1350    2.5000    0.0000 C   0  0  1  0  0  0  0  0  0  0  0  0
    5.1350    3.5000    0.0000 C   0  0  2  0  0  0  0  0  0  0  0  0
    8.5991   -0.5000    0.0000 C   0  0  1  0  0  0  0  0  0  0  0  0
    6.0010    4.0000    0.0000 C   0  0  1  0  0  0  0  0  0  0  0  0
    6.8671    3.5000    0.0000 C   0  0  1  0  0  0  0  0  0  0  0  0
    6.0010   -1.0000    0.0000 C   0  0  0  0  0  0  0  0  0  0  0  0
    5.1350   -2.5000    0.0000 C   0  0  2  0  0  0  0  0  0  0  0  0
    5.1350   -3.5000    0.0000 C   0  0  2  0  0  0  0  0  0  0  0  0
    4.2690   -4.0000    0.0000 C   0  0  1  0  0  0  0  0  0  0  0  0
    3.4030   -3.5000    0.0000 C   0  0  1  0  0  0  0  0  0  0  0  0
    7.7331    4.0000    0.0000 C   0  0  0  0  0  0  0  0  0  0  0  0
    3.4030   -2.5000    0.0000 C   0  0  2  0  0  0  0  0  0  0  0  0
   10.3312    0.5000    0.0000 C   0  0  0  0  0  0  0  0  0  0  0  0
    3.4030    2.5000    0.0000 C   0  0  0  0  0  0  0  0  0  0  0  0
    2.5369   -2.0000    0.0000 C   0  0  0  0  0  0  0  0  0  0  0  0
   11.1972    1.0000    0.0000 C   0  0  0  0  0  0  0  0  0  0  0  0
    2.5369    2.0000    0.0000 C   0  0  0  0  0  0  0  0  0  0  0  0
    6.3301    0.1900    0.0000 H   0  0  0  0  0  0  0  0  0  0  0  0
    7.1962    1.3100    0.0000 H   0  0  0  0  0  0  0  0  0  0  0  0
    6.8671   -1.1200    0.0000 H   0  0  0  0  0  0  0  0  0  0  0  0
    8.5991    1.1200    0.0000 H   0  0  0  0  0  0  0  0  0  0  0  0
    5.4641    1.6900    0.0000 H   0  0  0  0  0  0  0  0  0  0  0  0
    4.5981    2.8100    0.0000 H   0  0  0  0  0  0  0  0  0  0  0  0
    5.1350    4.1200    0.0000 H   0  0  0  0  0  0  0  0  0  0  0  0
    8.5991   -1.1200    0.0000 H   0  0  0  0  0  0  0  0  0  0  0  0
    6.5380    4.3100    0.0000 H   0  0  0  0  0  0  0  0  0  0  0  0
    7.4040    3.1900    0.0000 H   0  0  0  0  0  0  0  0  0  0  0  0
    5.7890   -0.4174    0.0000 H   0  0  0  0  0  0  0  0  0  0  0  0
    5.3905   -1.1077    0.0000 H   0  0  0  0  0  0  0  0  0  0  0  0
    5.1350   -1.8800    0.0000 H   0  0  0  0  0  0  0  0  0  0  0  0
    9.7751    1.5369    0.0000 H   0  0  0  0  0  0  0  0  0  0  0  0
    5.1350   -4.1200    0.0000 H   0  0  0  0  0  0  0  0  0  0  0  0
    4.2690    1.3800    0.0000 H   0  0  0  0  0  0  0  0  0  0  0  0
    3.7320   -4.3100    0.0000 H   0  0  0  0  0  0  0  0  0  0  0  0
    3.4030   -4.1200    0.0000 H   0  0  0  0  0  0  0  0  0  0  0  0
    7.9451    3.4174    0.0000 H   0  0  0  0  0  0  0  0  0  0  0  0
    8.3437    4.1077    0.0000 H   0  0  0  0  0  0  0  0  0  0  0  0
    3.4030   -1.8800    0.0000 H   0  0  0  0  0  0  0  0  0  0  0  0
    4.2690    4.6200    0.0000 H   0  0  0  0  0  0  0  0  0  0  0  0
    9.4651   -1.6200    0.0000 H   0  0  0  0  0  0  0  0  0  0  0  0
    5.4641    5.3100    0.0000 H   0  0  0  0  0  0  0  0  0  0  0  0
    2.8469   -1.4631    0.0000 H   0  0  0  0  0  0  0  0  0  0  0  0
    2.0000   -1.6900    0.0000 H   0  0  0  0  0  0  0  0  0  0  0  0
    2.2269   -2.5369    0.0000 H   0  0  0  0  0  0  0  0  0  0  0  0
    6.5380   -3.6900    0.0000 H   0  0  0  0  0  0  0  0  0  0  0  0
    3.7320   -5.3100    0.0000 H   0  0  0  0  0  0  0  0  0  0  0  0
    2.0000   -3.6900    0.0000 H   0  0  0  0  0  0  0  0  0  0  0  0
    8.2700    5.3100    0.0000 H   0  0  0  0  0  0  0  0  0  0  0  0
   11.5072    0.4631    0.0000 H   0  0  0  0  0  0  0  0  0  0  0  0
   11.7341    1.3100    0.0000 H   0  0  0  0  0  0  0  0  0  0  0  0
   10.8872    1.5369    0.0000 H   0  0  0  0  0  0  0  0  0  0  0  0
    2.2269    2.5369    0.0000 H   0  0  0  0  0  0  0  0  0  0  0  0
    2.0000    1.6900    0.0000 H   0  0  0  0  0  0  0  0  0  0  0  0
    2.8469    1.4631    0.0000 H   0  0  0  0  0  0  0  0  0  0  0  0
   10.0021    2.6900    0.0000 H   0  0  0  0  0  0  0  0  0  0  0  0
  1  5  1  0  0  0  0
  1 15  1  0  0  0  0
  1 16  2  0  0  0  0
  1 17  2  0  0  0  0
 22  2  1  1  0  0  0
 26  2  1  1  0  0  0
  3 24  1  0  0  0  0
  3 29  1  0  0  0  0
  4 26  1  0  0  0  0
  4 31  1  0  0  0  0
 23  5  1  6  0  0  0
  6 32  1  0  0  0  0
 33  6  1  1  0  0  0
  7 33  1  0  0  0  0
  7 38  1  0  0  0  0
 28  8  1  1  0  0  0
  8 65  1  0  0  0  0
 29  9  1  6  0  0  0
  9 66  1  0  0  0  0
 30 10  1  6  0  0  0
 10 67  1  0  0  0  0
 34 11  1  1  0  0  0
 11 71  1  0  0  0  0
 35 12  1  6  0  0  0
 12 72  1  0  0  0  0
 36 13  1  6  0  0  0
 13 73  1  0  0  0  0
 14 37  1  0  0  0  0
 14 74  1  0  0  0  0
 15 81  1  0  0  0  0
 18 39  2  0  0  0  0
 19 40  2  0  0  0  0
 25 20  1  1  0  0  0
 20 39  1  0  0  0  0
 20 57  1  0  0  0  0
 27 21  1  6  0  0  0
 21 40  1  0  0  0  0
 21 59  1  0  0  0  0
 22 23  1  0  0  0  0
 22 24  1  0  0  0  0
 22 44  1  0  0  0  0
 23 25  1  0  0  0  0
 23 45  1  0  0  0  0
 24 32  1  6  0  0  0
 24 46  1  0  0  0  0
 25 29  1  0  0  0  0
 25 47  1  0  0  0  0
 26 27  1  0  0  0  0
 26 48  1  0  0  0  0
 27 28  1  0  0  0  0
 27 49  1  0  0  0  0
 28 30  1  0  0  0  0
 28 50  1  0  0  0  0
 29 51  1  0  0  0  0
 30 31  1  0  0  0  0
 30 52  1  0  0  0  0
 31 37  1  1  0  0  0
 31 53  1  0  0  0  0
 32 54  1  0  0  0  0
 32 55  1  0  0  0  0
 33 34  1  0  0  0  0
 33 56  1  0  0  0  0
 34 35  1  0  0  0  0
 34 58  1  0  0  0  0
 35 36  1  0  0  0  0
 35 60  1  0  0  0  0
 36 38  1  0  0  0  0
 36 61  1  0  0  0  0
 37 62  1  0  0  0  0
 37 63  1  0  0  0  0
 38 41  1  6  0  0  0
 38 64  1  0  0  0  0
 39 42  1  0  0  0  0
 40 43  1  0  0  0  0
 41 68  1  0  0  0  0
 41 69  1  0  0  0  0
 41 70  1  0  0  0  0
 42 75  1  0  0  0  0
 42 76  1  0  0  0  0
 42 77  1  0  0  0  0
 43 78  1  0  0  0  0
 43 79  1  0  0  0  0
 43 80  1  0  0  0  0
M  END
> <PUBCHEM_COMPOUND_CID>
91846600

> <PUBCHEM_COMPOUND_CANONICALIZED>
1

> <PUBCHEM_CACTVS_COMPLEXITY>
1060

> <PUBCHEM_CACTVS_HBOND_ACCEPTOR>
18

> <PUBCHEM_CACTVS_HBOND_DONOR>
10

> <PUBCHEM_CACTVS_ROTATABLE_BOND>
10

> <PUBCHEM_CACTVS_SUBSKEYS>
AAADcfB7PgBAAAAAAAAAAAAAAAAAAAAAAAAkSJAAAAAAAAAAAAAAHgAQCAAACDzxgAcCCALABoAIAAEQEDAAAAAAAAAAAIAIAAATEAIAgAAnQAAHFgCXAAHwcA8AAAAAAAAAAAAAAAAAAAAAAAAAAAAAAA==

> <PUBCHEM_IUPAC_OPENEYE_NAME>
[(2R,3R,4R,5R,6R)-3-acetamido-5-[(2S,3R,4R,5S,6R)-3-acetamido-4,5-dihydroxy-6-(hydroxymethyl)tetrahydropyran-2-yl]oxy-2-hydroxy-6-[[(2R,3S,4R,5S,6S)-3,4,5-trihydroxy-6-methyl-tetrahydropyran-2-yl]oxymethyl]tetrahydropyran-4-yl] hydrogen sulfate

> <PUBCHEM_IUPAC_CAS_NAME>
sulfuric acid [(2R,3R,4R,5R,6R)-3-acetamido-5-[[(2S,3R,4R,5S,6R)-3-acetamido-4,5-dihydroxy-6-(hydroxymethyl)-2-oxanyl]oxy]-2-hydroxy-6-[[(2R,3S,4R,5S,6S)-3,4,5-trihydroxy-6-methyl-2-oxanyl]oxymethyl]-4-oxanyl] ester

> <PUBCHEM_IUPAC_NAME_MARKUP>
[(2<I>R</I>,3<I>R</I>,4<I>R</I>,5<I>R</I>,6<I>R</I>)-3-acetamido-5-[(2<I>S</I>,3<I>R</I>,4<I>R</I>,5<I>S</I>,6<I>R</I>)-3-acetamido-4,5-dihydroxy-6-(hydroxymethyl)oxan-2-yl]oxy-2-hydroxy-6-[[(2<I>R</I>,3<I>S</I>,4<I>R</I>,5<I>S</I>,6<I>S</I>)-3,4,5-trihydroxy-6-methyloxan-2-yl]oxymethyl]oxan-4-yl] hydrogen sulfate

> <PUBCHEM_IUPAC_NAME>
[(2R,3R,4R,5R,6R)-3-acetamido-5-[(2S,3R,4R,5S,6R)-3-acetamido-4,5-dihydroxy-6-(hydroxymethyl)oxan-2-yl]oxy-2-hydroxy-6-[[(2R,3S,4R,5S,6S)-3,4,5-trihydroxy-6-methyloxan-2-yl]oxymethyl]oxan-4-yl] hydrogen sulfate

> <PUBCHEM_IUPAC_SYSTEMATIC_NAME>
[(2R,3R,4R,5R,6R)-5-acetamido-3-[(2S,3R,4R,5S,6R)-3-acetamido-6-(hydroxymethyl)-4,5-bis(oxidanyl)oxan-2-yl]oxy-2-[[(2R,3S,4R,5S,6S)-6-methyl-3,4,5-tris(oxidanyl)oxan-2-yl]oxymethyl]-6-oxidanyl-oxan-4-yl] hydrogen sulfate

> <PUBCHEM_IUPAC_TRADITIONAL_NAME>
sulfuric acid [(2R,3R,4R,5R,6R)-3-acetamido-5-[(2S,3R,4R,5S,6R)-3-acetamido-4,5-dihydroxy-6-methylol-tetrahydropyran-2-yl]oxy-2-hydroxy-6-[[(2R,3S,4R,5S,6S)-3,4,5-trihydroxy-6-methyl-tetrahydropyran-2-yl]oxymethyl]tetrahydropyran-4-yl] ester

> <PUBCHEM_IUPAC_INCHI>
InChI=1S/C22H38N2O18S/c1-6-13(28)16(31)17(32)22(38-6)37-5-10-18(19(42-43(34,35)36)12(20(33)39-10)24-8(3)27)41-21-11(23-7(2)26)15(30)14(29)9(4-25)40-21/h6,9-22,25,28-33H,4-5H2,1-3H3,(H,23,26)(H,24,27)(H,34,35,36)/t6-,9+,10+,11+,12+,13+,14+,15+,16+,17-,18+,19+,20+,21-,22+/m0/s1

> <PUBCHEM_IUPAC_INCHIKEY>
YQTDLCAZYFPWSV-OMQXZMKASA-N

> <PUBCHEM_XLOGP3_AA>
-6.2

> <PUBCHEM_EXACT_MASS>
650.18403354

> <PUBCHEM_MOLECULAR_FORMULA>
C22H38N2O18S

> <PUBCHEM_MOLECULAR_WEIGHT>
650.6

> <PUBCHEM_OPENEYE_CAN_SMILES>
CC1C(C(C(C(O1)OCC2C(C(C(C(O2)O)NC(=O)C)OS(=O)(=O)O)OC3C(C(C(C(O3)CO)O)O)NC(=O)C)O)O)O

> <PUBCHEM_OPENEYE_ISO_SMILES>
C[C@H]1[C@H]([C@H]([C@@H]([C@@H](O1)OC[C@@H]2[C@H]([C@@H]([C@H]([C@@H](O2)O)NC(=O)C)OS(=O)(=O)O)O[C@H]3[C@@H]([C@H]([C@@H]([C@H](O3)CO)O)O)NC(=O)C)O)O)O

> <PUBCHEM_CACTVS_TPSA>
318

> <PUBCHEM_MONOISOTOPIC_WEIGHT>
650.18403354

> <PUBCHEM_TOTAL_CHARGE>
0

> <PUBCHEM_HEAVY_ATOM_COUNT>
43

> <PUBCHEM_ATOM_DEF_STEREO_COUNT>
15

> <PUBCHEM_ATOM_UDEF_STEREO_COUNT>
0

> <PUBCHEM_BOND_DEF_STEREO_COUNT>
0

> <PUBCHEM_BOND_UDEF_STEREO_COUNT>
0

> <PUBCHEM_ISOTOPIC_ATOM_COUNT>
0

> <PUBCHEM_COMPONENT_COUNT>
1

> <PUBCHEM_CACTVS_TAUTO_COUNT>
-1

> <PUBCHEM_COORDINATE_TYPE>
1
5
255

> <PUBCHEM_BONDANNOTATIONS>
30  10  6
34  11  5
35  12  6
36  13  6
22  2  5
26  2  5
25  20  5
27  21  6
24  32  6
31  37  5
38  41  6
23  5  6
33  6  5
28  8  5
29  9  6

$$$$
