 
  -OEChem-10192103412D

 82 86  0     1  0  0  0  0  0999 V2000
    3.7320   -1.4563    0.0000 O   0  0  0  0  0  0  0  0  0  0  0  0
    6.5270    2.0960    0.0000 O   0  0  0  0  0  0  0  0  0  0  0  0
    5.5463   -3.2342    0.0000 O   0  0  0  0  0  0  0  0  0  0  0  0
    4.0430   -2.3739    0.0000 O   0  0  0  0  0  0  0  0  0  0  0  0
    2.8718    0.0470    0.0000 O   0  0  0  0  0  0  0  0  0  0  0  0
    8.2591    0.0960    0.0000 C   0  0  1  0  0  0  0  0  0  0  0  0
    6.4831    0.0892    0.0000 C   0  0  2  0  0  0  0  0  0  0  0  0
    9.1251    0.5960    0.0000 C   0  0  1  0  0  0  0  0  0  0  0  0
    7.3931    0.5960    0.0000 C   0  0  3  0  0  0  0  0  0  0  0  0
    6.4750   -0.9524    0.0000 C   0  0  3  0  0  0  0  0  0  0  0  0
    8.2752   -0.9455    0.0000 C   0  0  0  0  0  0  0  0  0  0  0  0
    9.1251    1.5960    0.0000 C   0  0  0  0  0  0  0  0  0  0  0  0
   10.0191    2.1307    0.0000 C   0  0  3  0  0  0  0  0  0  0  0  0
    7.3771   -1.4732    0.0000 C   0  0  0  0  0  0  0  0  0  0  0  0
   10.9251    1.6168    0.0000 C   0  0  1  0  0  0  0  0  0  0  0  0
    5.5396   -1.5022    0.0000 C   0  0  1  0  0  0  0  0  0  0  0  0
   10.0191    0.0614    0.0000 C   0  0  0  0  0  0  0  0  0  0  0  0
    5.5562    0.6533    0.0000 C   0  0  0  0  0  0  0  0  0  0  0  0
   10.9251    0.5752    0.0000 C   0  0  0  0  0  0  0  0  0  0  0  0
    7.3931    1.5960    0.0000 C   0  0  0  0  0  0  0  0  0  0  0  0
    8.9019   -0.6700    0.0000 C   0  0  0  0  0  0  0  0  0  0  0  0
    4.6000   -0.9596    0.0000 C   0  0  1  0  0  0  0  0  0  0  0  0
    6.4908    1.0892    0.0000 C   0  0  0  0  0  0  0  0  0  0  0  0
    9.4672   -0.3436    0.0000 C   0  0  0  0  0  0  0  0  0  0  0  0
    9.9940    3.2154    0.0000 C   0  0  2  0  0  0  0  0  0  0  0  0
    4.6084    0.1253    0.0000 C   0  0  0  0  0  0  0  0  0  0  0  0
    8.2591    2.0960    0.0000 C   0  0  0  0  0  0  0  0  0  0  0  0
   11.8689    2.1521    0.0000 C   0  0  0  0  0  0  0  0  0  0  0  0
   10.9251    3.7723    0.0000 C   0  0  0  0  0  0  0  0  0  0  0  0
   11.7950    1.1235    0.0000 C   0  0  0  0  0  0  0  0  0  0  0  0
   11.8689    3.2371    0.0000 C   0  0  0  0  0  0  0  0  0  0  0  0
    6.0430   -2.3662    0.0000 C   0  0  0  0  0  0  0  0  0  0  0  0
    5.0430   -2.3701    0.0000 C   0  0  0  0  0  0  0  0  0  0  0  0
    9.1185    3.6986    0.0000 C   0  0  0  0  0  0  0  0  0  0  0  0
    2.8680   -0.9530    0.0000 C   0  0  0  0  0  0  0  0  0  0  0  0
    2.0000   -1.4496    0.0000 C   0  0  0  0  0  0  0  0  0  0  0  0
    7.9300    0.9060    0.0000 H   0  0  0  0  0  0  0  0  0  0  0  0
    6.4774   -1.5724    0.0000 H   0  0  0  0  0  0  0  0  0  0  0  0
    8.4932   -1.5259    0.0000 H   0  0  0  0  0  0  0  0  0  0  0  0
    8.8843   -0.8300    0.0000 H   0  0  0  0  0  0  0  0  0  0  0  0
    9.4762    2.4303    0.0000 H   0  0  0  0  0  0  0  0  0  0  0  0
    6.9798   -1.9492    0.0000 H   0  0  0  0  0  0  0  0  0  0  0  0
    7.7781   -1.9461    0.0000 H   0  0  0  0  0  0  0  0  0  0  0  0
    9.6145   -0.4084    0.0000 H   0  0  0  0  0  0  0  0  0  0  0  0
   10.4127   -0.4177    0.0000 H   0  0  0  0  0  0  0  0  0  0  0  0
    5.9644    1.1199    0.0000 H   0  0  0  0  0  0  0  0  0  0  0  0
    5.1663    1.1353    0.0000 H   0  0  0  0  0  0  0  0  0  0  0  0
   11.1342   -0.0085    0.0000 H   0  0  0  0  0  0  0  0  0  0  0  0
   11.5360    0.6813    0.0000 H   0  0  0  0  0  0  0  0  0  0  0  0
    8.4269   -1.0686    0.0000 H   0  0  0  0  0  0  0  0  0  0  0  0
    9.3004   -1.1450    0.0000 H   0  0  0  0  0  0  0  0  0  0  0  0
    9.3768   -0.2715    0.0000 H   0  0  0  0  0  0  0  0  0  0  0  0
    4.0648   -0.6465    0.0000 H   0  0  0  0  0  0  0  0  0  0  0  0
    7.1108    1.0844    0.0000 H   0  0  0  0  0  0  0  0  0  0  0  0
    6.4956    1.7091    0.0000 H   0  0  0  0  0  0  0  0  0  0  0  0
    5.8708    1.0939    0.0000 H   0  0  0  0  0  0  0  0  0  0  0  0
    8.8846   -0.5557    0.0000 H   0  0  0  0  0  0  0  0  0  0  0  0
    9.6794   -0.9262    0.0000 H   0  0  0  0  0  0  0  0  0  0  0  0
   10.0498   -0.1315    0.0000 H   0  0  0  0  0  0  0  0  0  0  0  0
    9.9832    3.8353    0.0000 H   0  0  0  0  0  0  0  0  0  0  0  0
    4.4038    0.7106    0.0000 H   0  0  0  0  0  0  0  0  0  0  0  0
    3.9967    0.0239    0.0000 H   0  0  0  0  0  0  0  0  0  0  0  0
    8.2591    2.7160    0.0000 H   0  0  0  0  0  0  0  0  0  0  0  0
   12.0780    1.5684    0.0000 H   0  0  0  0  0  0  0  0  0  0  0  0
   12.4798    2.2582    0.0000 H   0  0  0  0  0  0  0  0  0  0  0  0
   11.3188    4.2513    0.0000 H   0  0  0  0  0  0  0  0  0  0  0  0
   10.5205    4.2421    0.0000 H   0  0  0  0  0  0  0  0  0  0  0  0
   11.4891    0.5842    0.0000 H   0  0  0  0  0  0  0  0  0  0  0  0
   12.3343    0.8177    0.0000 H   0  0  0  0  0  0  0  0  0  0  0  0
   12.1008    1.6628    0.0000 H   0  0  0  0  0  0  0  0  0  0  0  0
   12.4798    3.1310    0.0000 H   0  0  0  0  0  0  0  0  0  0  0  0
   12.0780    3.8208    0.0000 H   0  0  0  0  0  0  0  0  0  0  0  0
    5.5072   -2.6783    0.0000 H   0  0  0  0  0  0  0  0  0  0  0  0
    6.3550   -2.9020    0.0000 H   0  0  0  0  0  0  0  0  0  0  0  0
    6.5787   -2.0542    0.0000 H   0  0  0  0  0  0  0  0  0  0  0  0
    9.4181    4.2414    0.0000 H   0  0  0  0  0  0  0  0  0  0  0  0
    8.5757    3.9982    0.0000 H   0  0  0  0  0  0  0  0  0  0  0  0
    8.8189    3.1558    0.0000 H   0  0  0  0  0  0  0  0  0  0  0  0
    5.2384   -3.7723    0.0000 H   0  0  0  0  0  0  0  0  0  0  0  0
    1.6921   -0.9115    0.0000 H   0  0  0  0  0  0  0  0  0  0  0  0
    1.4619   -1.7576    0.0000 H   0  0  0  0  0  0  0  0  0  0  0  0
    2.3079   -1.9878    0.0000 H   0  0  0  0  0  0  0  0  0  0  0  0
 22  1  1  6  0  0  0
  1 35  1  0  0  0  0
  2 20  2  0  0  0  0
  3 33  1  0  0  0  0
  3 79  1  0  0  0  0
  4 33  2  0  0  0  0
  5 35  2  0  0  0  0
  6  8  1  0  0  0  0
  6  9  1  0  0  0  0
  6 11  1  0  0  0  0
  6 21  1  1  0  0  0
  7  9  1  0  0  0  0
  7 10  1  0  0  0  0
  7 18  1  0  0  0  0
  7 23  1  1  0  0  0
  8 12  1  0  0  0  0
  8 17  1  0  0  0  0
  8 24  1  6  0  0  0
  9 20  1  0  0  0  0
  9 37  1  0  0  0  0
 10 14  1  0  0  0  0
 10 16  1  0  0  0  0
 10 38  1  0  0  0  0
 11 14  1  0  0  0  0
 11 39  1  0  0  0  0
 11 40  1  0  0  0  0
 12 13  1  0  0  0  0
 12 27  2  0  0  0  0
 13 15  1  0  0  0  0
 13 25  1  0  0  0  0
 13 41  1  0  0  0  0
 14 42  1  0  0  0  0
 14 43  1  0  0  0  0
 15 19  1  0  0  0  0
 15 28  1  0  0  0  0
 15 30  1  1  0  0  0
 16 22  1  0  0  0  0
 16 32  1  6  0  0  0
 16 33  1  0  0  0  0
 17 19  1  0  0  0  0
 17 44  1  0  0  0  0
 17 45  1  0  0  0  0
 18 26  1  0  0  0  0
 18 46  1  0  0  0  0
 18 47  1  0  0  0  0
 19 48  1  0  0  0  0
 19 49  1  0  0  0  0
 20 27  1  0  0  0  0
 21 50  1  0  0  0  0
 21 51  1  0  0  0  0
 21 52  1  0  0  0  0
 22 26  1  0  0  0  0
 22 53  1  0  0  0  0
 23 54  1  0  0  0  0
 23 55  1  0  0  0  0
 23 56  1  0  0  0  0
 24 57  1  0  0  0  0
 24 58  1  0  0  0  0
 24 59  1  0  0  0  0
 25 29  1  0  0  0  0
 25 34  1  1  0  0  0
 25 60  1  0  0  0  0
 26 61  1  0  0  0  0
 26 62  1  0  0  0  0
 27 63  1  0  0  0  0
 28 31  1  0  0  0  0
 28 64  1  0  0  0  0
 28 65  1  0  0  0  0
 29 31  1  0  0  0  0
 29 66  1  0  0  0  0
 29 67  1  0  0  0  0
 30 68  1  0  0  0  0
 30 69  1  0  0  0  0
 30 70  1  0  0  0  0
 31 71  1  0  0  0  0
 31 72  1  0  0  0  0
 32 73  1  0  0  0  0
 32 74  1  0  0  0  0
 32 75  1  0  0  0  0
 34 76  1  0  0  0  0
 34 77  1  0  0  0  0
 34 78  1  0  0  0  0
 35 36  1  0  0  0  0
 36 80  1  0  0  0  0
 36 81  1  0  0  0  0
 36 82  1  0  0  0  0
M  END
> <PUBCHEM_COMPOUND_CID>
68025035

> <PUBCHEM_COMPOUND_CANONICALIZED>
1

> <PUBCHEM_CACTVS_COMPLEXITY>
1030

> <PUBCHEM_CACTVS_HBOND_ACCEPTOR>
5

> <PUBCHEM_CACTVS_HBOND_DONOR>
1

> <PUBCHEM_CACTVS_ROTATABLE_BOND>
3

> <PUBCHEM_CACTVS_SUBSKEYS>
AAADcfB4OAAAAAAAAAAAAAAAAAAAAAAAAAAwYMGCAAAAAADAAAAAGgAACAAADxSggAICCAAABgCIAqDSCAAAAAAgAAAACAEAAEgAABYAAQACQAAFoAAIAQOIyPCPgAAAAAAAAADAAAYAADAAAAAAAAAAAA==

> <PUBCHEM_IUPAC_OPENEYE_NAME>
(3R,4R,6aR,6bS,8aR,12S,14bS)-3-acetoxy-4,6a,6b,8a,12,14b-hexamethyl-14-oxo-1,2,3,4a,5,6,7,8,9,10,11,12,12a,14a-tetradecahydropicene-4-carboxylic acid

> <PUBCHEM_IUPAC_CAS_NAME>
(3R,4R,6aR,6bS,8aR,12S,14bS)-3-acetyloxy-4,6a,6b,8a,12,14b-hexamethyl-14-oxo-1,2,3,4a,5,6,7,8,9,10,11,12,12a,14a-tetradecahydropicene-4-carboxylic acid

> <PUBCHEM_IUPAC_NAME_MARKUP>
(3<I>R</I>,4<I>R</I>,6<I>a</I><I>R</I>,6<I>b</I><I>S</I>,8<I>a</I><I>R</I>,12<I>S</I>,14<I>b</I><I>S</I>)-3-acetyloxy-4,6<I>a</I>,6<I>b</I>,8<I>a</I>,12,14<I>b</I>-hexamethyl-14-oxo-1,2,3,4<I>a</I>,5,6,7,8,9,10,11,12,12<I>a</I>,14<I>a</I>-tetradecahydropicene-4-carboxylic acid

> <PUBCHEM_IUPAC_NAME>
(3R,4R,6aR,6bS,8aR,12S,14bS)-3-acetyloxy-4,6a,6b,8a,12,14b-hexamethyl-14-oxo-1,2,3,4a,5,6,7,8,9,10,11,12,12a,14a-tetradecahydropicene-4-carboxylic acid

> <PUBCHEM_IUPAC_SYSTEMATIC_NAME>
(3R,4R,6aR,6bS,8aR,12S,14bS)-3-acetyloxy-4,6a,6b,8a,12,14b-hexamethyl-14-oxidanylidene-1,2,3,4a,5,6,7,8,9,10,11,12,12a,14a-tetradecahydropicene-4-carboxylic acid

> <PUBCHEM_IUPAC_TRADITIONAL_NAME>
(3R,4R,6aR,6bS,8aR,12S,14bS)-3-acetoxy-14-keto-4,6a,6b,8a,12,14b-hexamethyl-1,2,3,4a,5,6,7,8,9,10,11,12,12a,14a-tetradecahydropicene-4-carboxylic acid

> <PUBCHEM_IUPAC_INCHI>
InChI=1S/C31H46O5/c1-18-9-8-12-27(3)15-16-29(5)20(24(18)27)17-21(33)25-28(4)13-11-23(36-19(2)32)31(7,26(34)35)22(28)10-14-30(25,29)6/h17-18,22-25H,8-16H2,1-7H3,(H,34,35)/t18-,22?,23+,24?,25?,27+,28-,29+,30+,31+/m0/s1

> <PUBCHEM_IUPAC_INCHIKEY>
VMJPEPDLWMHQIE-RYLGZCRYSA-N

> <PUBCHEM_XLOGP3_AA>
7

> <PUBCHEM_EXACT_MASS>
498.33452456

> <PUBCHEM_MOLECULAR_FORMULA>
C31H46O5

> <PUBCHEM_MOLECULAR_WEIGHT>
498.7

> <PUBCHEM_OPENEYE_CAN_SMILES>
CC1CCCC2(C1C3=CC(=O)C4C5(CCC(C(C5CCC4(C3(CC2)C)C)(C)C(=O)O)OC(=O)C)C)C

> <PUBCHEM_OPENEYE_ISO_SMILES>
C[C@H]1CCC[C@]2(C1C3=CC(=O)C4[C@]5(CC[C@H]([C@](C5CC[C@]4([C@@]3(CC2)C)C)(C)C(=O)O)OC(=O)C)C)C

> <PUBCHEM_CACTVS_TPSA>
80.7

> <PUBCHEM_MONOISOTOPIC_WEIGHT>
498.33452456

> <PUBCHEM_TOTAL_CHARGE>
0

> <PUBCHEM_HEAVY_ATOM_COUNT>
36

> <PUBCHEM_ATOM_DEF_STEREO_COUNT>
7

> <PUBCHEM_ATOM_UDEF_STEREO_COUNT>
3

> <PUBCHEM_BOND_DEF_STEREO_COUNT>
0

> <PUBCHEM_BOND_UDEF_STEREO_COUNT>
0

> <PUBCHEM_ISOTOPIC_ATOM_COUNT>
0

> <PUBCHEM_COMPONENT_COUNT>
1

> <PUBCHEM_CACTVS_TAUTO_COUNT>
-1

> <PUBCHEM_COORDINATE_TYPE>
1
5
255

> <PUBCHEM_BONDANNOTATIONS>
22  1  6
10  14  3
13  12  3
15  30  5
16  32  6
25  34  5
6  21  5
7  23  5
8  24  6
9  20  3

$$$$
