 
  -OEChem-10192104422D

 38 40  0     1  0  0  0  0  0999 V2000
    5.3958   -2.6550    0.0000 S   0  0  0  0  0  0  0  0  0  0  0  0
    3.0000   -0.6550    0.0000 S   0  0  0  0  0  0  0  0  0  0  0  0
    3.0000   -3.6550    0.0000 O   0  0  0  0  0  0  0  0  0  0  0  0
    6.2049   -3.2428    0.0000 O   0  0  0  0  0  0  0  0  0  0  0  0
    6.2049   -2.0672    0.0000 O   0  0  0  0  0  0  0  0  0  0  0  0
    2.0000   -0.6550    0.0000 O   0  0  0  0  0  0  0  0  0  0  0  0
    4.0000   -0.6550    0.0000 O   0  0  0  0  0  0  0  0  0  0  0  0
    4.7320    3.3450    0.0000 O   0  0  0  0  0  0  0  0  0  0  0  0
    5.5981    1.8450    0.0000 O   0  0  0  0  0  0  0  0  0  0  0  0
    3.0000   -1.6550    0.0000 N   0  0  3  0  0  0  0  0  0  0  0  0
    3.8660   -2.1550    0.0000 C   0  0  3  0  0  0  0  0  0  0  0  0
    3.8660   -3.1550    0.0000 C   0  0  3  0  0  0  0  0  0  0  0  0
    4.8122   -1.8503    0.0000 C   0  0  0  0  0  0  0  0  0  0  0  0
    4.8122   -3.4597    0.0000 C   0  0  0  0  0  0  0  0  0  0  0  0
    2.1340   -2.1550    0.0000 C   0  0  0  0  0  0  0  0  0  0  0  0
    2.1340   -3.1550    0.0000 C   0  0  0  0  0  0  0  0  0  0  0  0
    3.0000    0.3450    0.0000 C   0  0  0  0  0  0  0  0  0  0  0  0
    3.8660    0.8450    0.0000 C   0  0  0  0  0  0  0  0  0  0  0  0
    2.1340    0.8450    0.0000 C   0  0  0  0  0  0  0  0  0  0  0  0
    3.8660    1.8450    0.0000 C   0  0  0  0  0  0  0  0  0  0  0  0
    2.1340    1.8450    0.0000 C   0  0  0  0  0  0  0  0  0  0  0  0
    3.0000    2.3450    0.0000 C   0  0  0  0  0  0  0  0  0  0  0  0
    4.7320    2.3450    0.0000 C   0  0  0  0  0  0  0  0  0  0  0  0
    3.9316   -1.5385    0.0000 H   0  0  0  0  0  0  0  0  0  0  0  0
    3.9316   -3.7715    0.0000 H   0  0  0  0  0  0  0  0  0  0  0  0
    5.3496   -1.5410    0.0000 H   0  0  0  0  0  0  0  0  0  0  0  0
    4.5612   -1.2834    0.0000 H   0  0  0  0  0  0  0  0  0  0  0  0
    4.5612   -4.0266    0.0000 H   0  0  0  0  0  0  0  0  0  0  0  0
    5.3496   -3.7690    0.0000 H   0  0  0  0  0  0  0  0  0  0  0  0
    1.9219   -1.5724    0.0000 H   0  0  0  0  0  0  0  0  0  0  0  0
    1.5234   -2.2627    0.0000 H   0  0  0  0  0  0  0  0  0  0  0  0
    1.5234   -3.0473    0.0000 H   0  0  0  0  0  0  0  0  0  0  0  0
    1.9219   -3.7376    0.0000 H   0  0  0  0  0  0  0  0  0  0  0  0
    4.4030    0.5350    0.0000 H   0  0  0  0  0  0  0  0  0  0  0  0
    1.5970    0.5350    0.0000 H   0  0  0  0  0  0  0  0  0  0  0  0
    1.5970    2.1550    0.0000 H   0  0  0  0  0  0  0  0  0  0  0  0
    3.0000    2.9650    0.0000 H   0  0  0  0  0  0  0  0  0  0  0  0
    5.2690    3.6550    0.0000 H   0  0  0  0  0  0  0  0  0  0  0  0
  1  4  2  0  0  0  0
  1  5  2  0  0  0  0
  1 13  1  0  0  0  0
  1 14  1  0  0  0  0
  2  6  2  0  0  0  0
  2  7  2  0  0  0  0
  2 10  1  0  0  0  0
  2 17  1  0  0  0  0
  3 12  1  0  0  0  0
  3 16  1  0  0  0  0
  8 23  1  0  0  0  0
  8 38  1  0  0  0  0
  9 23  2  0  0  0  0
 10 11  1  0  0  0  0
 10 15  1  0  0  0  0
 11 12  1  0  0  0  0
 11 13  1  0  0  0  0
 11 24  1  0  0  0  0
 12 14  1  0  0  0  0
 12 25  1  0  0  0  0
 13 26  1  0  0  0  0
 13 27  1  0  0  0  0
 14 28  1  0  0  0  0
 14 29  1  0  0  0  0
 15 16  1  0  0  0  0
 15 30  1  0  0  0  0
 15 31  1  0  0  0  0
 16 32  1  0  0  0  0
 16 33  1  0  0  0  0
 17 18  1  0  0  0  0
 17 19  2  0  0  0  0
 18 20  2  0  0  0  0
 18 34  1  0  0  0  0
 19 21  1  0  0  0  0
 19 35  1  0  0  0  0
 20 22  1  0  0  0  0
 20 23  1  0  0  0  0
 21 22  2  0  0  0  0
 21 36  1  0  0  0  0
 22 37  1  0  0  0  0
M  END
> <PUBCHEM_COMPOUND_CID>
110629079

> <PUBCHEM_COMPOUND_CANONICALIZED>
1

> <PUBCHEM_CACTVS_COMPLEXITY>
676

> <PUBCHEM_CACTVS_HBOND_ACCEPTOR>
8

> <PUBCHEM_CACTVS_HBOND_DONOR>
1

> <PUBCHEM_CACTVS_ROTATABLE_BOND>
3

> <PUBCHEM_CACTVS_SUBSKEYS>
AAADccByOABgAAAAAAAAAAAAAAAAASAAAAA8QAAAAAAAAFgBAAAAHgQASAAADDzl2AawCYIABgqIAiDSCHBCABAkABAIiBkICMgKJjKgFRCHcQAkwAG4mYeIyCCOAAAAgAAAAAAAAAEAAAAAAAAAAAAAAA==

> <PUBCHEM_IUPAC_OPENEYE_NAME>
3-[(6,6-dioxo-2,3,4a,5,7,7a-hexahydrothieno[3,4-b][1,4]oxazin-4-yl)sulfonyl]benzoic acid

> <PUBCHEM_IUPAC_CAS_NAME>
3-[(6,6-dioxo-2,3,4a,5,7,7a-hexahydrothieno[3,4-b][1,4]oxazin-4-yl)sulfonyl]benzoic acid

> <PUBCHEM_IUPAC_NAME_MARKUP>
3-[(6,6-dioxo-2,3,4<I>a</I>,5,7,7<I>a</I>-hexahydrothieno[3,4-b][1,4]oxazin-4-yl)sulfonyl]benzoic acid

> <PUBCHEM_IUPAC_NAME>
3-[(6,6-dioxo-2,3,4a,5,7,7a-hexahydrothieno[3,4-b][1,4]oxazin-4-yl)sulfonyl]benzoic acid

> <PUBCHEM_IUPAC_SYSTEMATIC_NAME>
3-[[6,6-bis(oxidanylidene)-2,3,4a,5,7,7a-hexahydrothieno[3,4-b][1,4]oxazin-4-yl]sulfonyl]benzoic acid

> <PUBCHEM_IUPAC_TRADITIONAL_NAME>
3-[(6,6-diketo-2,3,4a,5,7,7a-hexahydrothieno[3,4-b][1,4]oxazin-4-yl)sulfonyl]benzoic acid

> <PUBCHEM_IUPAC_INCHI>
InChI=1S/C13H15NO7S2/c15-13(16)9-2-1-3-10(6-9)23(19,20)14-4-5-21-12-8-22(17,18)7-11(12)14/h1-3,6,11-12H,4-5,7-8H2,(H,15,16)

> <PUBCHEM_IUPAC_INCHIKEY>
PTGZVRPZOUMIPB-UHFFFAOYSA-N

> <PUBCHEM_XLOGP3_AA>
-0.5

> <PUBCHEM_EXACT_MASS>
361.02899416

> <PUBCHEM_MOLECULAR_FORMULA>
C13H15NO7S2

> <PUBCHEM_MOLECULAR_WEIGHT>
361.4

> <PUBCHEM_OPENEYE_CAN_SMILES>
C1COC2CS(=O)(=O)CC2N1S(=O)(=O)C3=CC=CC(=C3)C(=O)O

> <PUBCHEM_OPENEYE_ISO_SMILES>
C1COC2CS(=O)(=O)CC2N1S(=O)(=O)C3=CC=CC(=C3)C(=O)O

> <PUBCHEM_CACTVS_TPSA>
135

> <PUBCHEM_MONOISOTOPIC_WEIGHT>
361.02899416

> <PUBCHEM_TOTAL_CHARGE>
0

> <PUBCHEM_HEAVY_ATOM_COUNT>
23

> <PUBCHEM_ATOM_DEF_STEREO_COUNT>
0

> <PUBCHEM_ATOM_UDEF_STEREO_COUNT>
2

> <PUBCHEM_BOND_DEF_STEREO_COUNT>
0

> <PUBCHEM_BOND_UDEF_STEREO_COUNT>
0

> <PUBCHEM_ISOTOPIC_ATOM_COUNT>
0

> <PUBCHEM_COMPONENT_COUNT>
1

> <PUBCHEM_CACTVS_TAUTO_COUNT>
-1

> <PUBCHEM_COORDINATE_TYPE>
1
5
255

> <PUBCHEM_BONDANNOTATIONS>
11  13  3
12  14  3
17  18  8
17  19  8
18  20  8
19  21  8
20  22  8
21  22  8

$$$$
