 
  -OEChem-10192104192D

 80 83  0     1  0  0  0  0  0999 V2000
    7.7331    0.0625    0.0000 O   0  0  0  0  0  0  0  0  0  0  0  0
    6.0010   -0.9375    0.0000 O   0  0  0  0  0  0  0  0  0  0  0  0
    8.6031    1.6041    0.0000 O   0  0  0  0  0  0  0  0  0  0  0  0
    9.1503   -0.8905    0.0000 O   0  0  0  0  0  0  0  0  0  0  0  0
   11.3577    0.3501    0.0000 O   0  0  0  0  0  0  0  0  0  0  0  0
    4.2690   -0.9375    0.0000 O   0  0  0  0  0  0  0  0  0  0  0  0
   11.2804    2.0562    0.0000 O   0  0  0  0  0  0  0  0  0  0  0  0
    6.0010   -2.9375    0.0000 O   0  0  0  0  0  0  0  0  0  0  0  0
    4.2690   -3.9375    0.0000 O   0  0  0  0  0  0  0  0  0  0  0  0
    2.5369   -2.9375    0.0000 O   0  0  0  0  0  0  0  0  0  0  0  0
    8.6684    3.6276    0.0000 O   0  0  0  0  0  0  0  0  0  0  0  0
   13.6937   -0.7438    0.0000 O   0  0  0  0  0  0  0  0  0  0  0  0
   13.1202    0.8905    0.0000 O   0  0  0  0  0  0  0  0  0  0  0  0
    6.0010    0.0625    0.0000 C   0  0  3  0  0  0  0  0  0  0  0  0
    6.8671    0.5625    0.0000 C   0  0  1  0  0  0  0  0  0  0  0  0
    5.1350    0.5625    0.0000 C   0  0  1  0  0  0  0  0  0  0  0  0
    6.8671    1.5625    0.0000 C   0  0  0  0  0  0  0  0  0  0  0  0
    5.1350    1.5625    0.0000 C   0  0  0  0  0  0  0  0  0  0  0  0
    6.0010    2.0625    0.0000 C   0  0  0  0  0  0  0  0  0  0  0  0
    8.5991    0.5625    0.0000 C   0  0  2  0  0  0  0  0  0  0  0  0
    9.5032    0.0451    0.0000 C   0  0  3  0  0  0  0  0  0  0  0  0
   10.3749    0.5351    0.0000 C   0  0  3  0  0  0  0  0  0  0  0  0
   10.4030    1.5763    0.0000 C   0  0  2  0  0  0  0  0  0  0  0  0
    9.5112    2.1144    0.0000 C   0  0  3  0  0  0  0  0  0  0  0  0
    5.1350   -1.4375    0.0000 C   0  0  2  0  0  0  0  0  0  0  0  0
    4.2690    0.0625    0.0000 C   0  0  0  0  0  0  0  0  0  0  0  0
    5.1350   -2.4375    0.0000 C   0  0  2  0  0  0  0  0  0  0  0  0
    4.2690   -2.9375    0.0000 C   0  0  3  0  0  0  0  0  0  0  0  0
    3.4030   -2.4375    0.0000 C   0  0  1  0  0  0  0  0  0  0  0  0
    3.4030   -1.4375    0.0000 C   0  0  3  0  0  0  0  0  0  0  0  0
    9.5266    3.1143    0.0000 C   0  0  0  0  0  0  0  0  0  0  0  0
   11.9916   -0.4234    0.0000 C   0  0  2  0  0  0  0  0  0  0  0  0
    9.4815   -1.8341    0.0000 C   0  0  0  0  0  0  0  0  0  0  0  0
   11.9800   -1.4233    0.0000 C   0  0  0  0  0  0  0  0  0  0  0  0
   10.3416   -2.3441    0.0000 C   0  0  0  0  0  0  0  0  0  0  0  0
   11.3284   -2.1819    0.0000 C   0  0  0  0  0  0  0  0  0  0  0  0
    2.5369   -0.9375    0.0000 C   0  0  0  0  0  0  0  0  0  0  0  0
   12.9351   -0.0922    0.0000 C   0  0  0  0  0  0  0  0  0  0  0  0
    6.5380   -0.2475    0.0000 H   0  0  0  0  0  0  0  0  0  0  0  0
    7.4040    0.8725    0.0000 H   0  0  0  0  0  0  0  0  0  0  0  0
    5.1350   -0.0575    0.0000 H   0  0  0  0  0  0  0  0  0  0  0  0
    7.4776    1.4548    0.0000 H   0  0  0  0  0  0  0  0  0  0  0  0
    7.0791    2.1451    0.0000 H   0  0  0  0  0  0  0  0  0  0  0  0
    4.9230    2.1451    0.0000 H   0  0  0  0  0  0  0  0  0  0  0  0
    4.5244    1.4548    0.0000 H   0  0  0  0  0  0  0  0  0  0  0  0
    6.3996    2.5374    0.0000 H   0  0  0  0  0  0  0  0  0  0  0  0
    5.6025    2.5374    0.0000 H   0  0  0  0  0  0  0  0  0  0  0  0
    8.0628    0.8735    0.0000 H   0  0  0  0  0  0  0  0  0  0  0  0
    8.9198   -0.1647    0.0000 H   0  0  0  0  0  0  0  0  0  0  0  0
   10.8575    0.9244    0.0000 H   0  0  0  0  0  0  0  0  0  0  0  0
   10.4162    2.1962    0.0000 H   0  0  0  0  0  0  0  0  0  0  0  0
    8.9785    2.4316    0.0000 H   0  0  0  0  0  0  0  0  0  0  0  0
    5.1350   -0.8175    0.0000 H   0  0  0  0  0  0  0  0  0  0  0  0
    3.9590    0.5994    0.0000 H   0  0  0  0  0  0  0  0  0  0  0  0
    3.7320   -0.2475    0.0000 H   0  0  0  0  0  0  0  0  0  0  0  0
    4.5790   -0.4745    0.0000 H   0  0  0  0  0  0  0  0  0  0  0  0
    5.1350   -3.0575    0.0000 H   0  0  0  0  0  0  0  0  0  0  0  0
    3.7320   -3.2475    0.0000 H   0  0  0  0  0  0  0  0  0  0  0  0
    3.4030   -3.0575    0.0000 H   0  0  0  0  0  0  0  0  0  0  0  0
    3.4030   -0.8175    0.0000 H   0  0  0  0  0  0  0  0  0  0  0  0
   10.1354    2.9973    0.0000 H   0  0  0  0  0  0  0  0  0  0  0  0
    9.7476    3.6936    0.0000 H   0  0  0  0  0  0  0  0  0  0  0  0
   12.1589    0.1736    0.0000 H   0  0  0  0  0  0  0  0  0  0  0  0
    8.8621   -1.8630    0.0000 H   0  0  0  0  0  0  0  0  0  0  0  0
    9.3315   -2.4357    0.0000 H   0  0  0  0  0  0  0  0  0  0  0  0
   12.3147   -1.9452    0.0000 H   0  0  0  0  0  0  0  0  0  0  0  0
   12.5760   -1.2524    0.0000 H   0  0  0  0  0  0  0  0  0  0  0  0
    9.8858   -2.7643    0.0000 H   0  0  0  0  0  0  0  0  0  0  0  0
   10.6135   -2.9013    0.0000 H   0  0  0  0  0  0  0  0  0  0  0  0
   11.2493   -2.7968    0.0000 H   0  0  0  0  0  0  0  0  0  0  0  0
   11.8948   -2.4340    0.0000 H   0  0  0  0  0  0  0  0  0  0  0  0
   11.2947    2.6760    0.0000 H   0  0  0  0  0  0  0  0  0  0  0  0
    2.8469   -0.4006    0.0000 H   0  0  0  0  0  0  0  0  0  0  0  0
    2.0000   -0.6275    0.0000 H   0  0  0  0  0  0  0  0  0  0  0  0
    2.2269   -1.4745    0.0000 H   0  0  0  0  0  0  0  0  0  0  0  0
    6.0010   -3.5575    0.0000 H   0  0  0  0  0  0  0  0  0  0  0  0
    3.7320   -4.2475    0.0000 H   0  0  0  0  0  0  0  0  0  0  0  0
    2.0000   -2.6275    0.0000 H   0  0  0  0  0  0  0  0  0  0  0  0
    8.6779    4.2475    0.0000 H   0  0  0  0  0  0  0  0  0  0  0  0
   14.2787   -0.5385    0.0000 H   0  0  0  0  0  0  0  0  0  0  0  0
 15  1  1  1  0  0  0
 20  1  1  6  0  0  0
  2 14  1  0  0  0  0
 25  2  1  1  0  0  0
  3 20  1  0  0  0  0
  3 24  1  0  0  0  0
  4 21  1  0  0  0  0
  4 33  1  0  0  0  0
  5 22  1  0  0  0  0
  5 32  1  0  0  0  0
  6 25  1  0  0  0  0
  6 30  1  0  0  0  0
 23  7  1  6  0  0  0
  7 72  1  0  0  0  0
 27  8  1  1  0  0  0
  8 76  1  0  0  0  0
  9 28  1  0  0  0  0
  9 77  1  0  0  0  0
 29 10  1  6  0  0  0
 10 78  1  0  0  0  0
 11 31  1  0  0  0  0
 11 79  1  0  0  0  0
 12 38  1  0  0  0  0
 12 80  1  0  0  0  0
 13 38  2  0  0  0  0
 14 15  1  0  0  0  0
 14 16  1  0  0  0  0
 14 39  1  0  0  0  0
 15 17  1  0  0  0  0
 15 40  1  0  0  0  0
 16 18  1  0  0  0  0
 16 26  1  6  0  0  0
 16 41  1  0  0  0  0
 17 19  1  0  0  0  0
 17 42  1  0  0  0  0
 17 43  1  0  0  0  0
 18 19  1  0  0  0  0
 18 44  1  0  0  0  0
 18 45  1  0  0  0  0
 19 46  1  0  0  0  0
 19 47  1  0  0  0  0
 20 21  1  0  0  0  0
 20 48  1  0  0  0  0
 21 22  1  0  0  0  0
 21 49  1  0  0  0  0
 22 23  1  0  0  0  0
 22 50  1  0  0  0  0
 23 24  1  0  0  0  0
 23 51  1  0  0  0  0
 24 31  1  0  0  0  0
 24 52  1  0  0  0  0
 25 27  1  0  0  0  0
 25 53  1  0  0  0  0
 26 54  1  0  0  0  0
 26 55  1  0  0  0  0
 26 56  1  0  0  0  0
 27 28  1  0  0  0  0
 27 57  1  0  0  0  0
 28 29  1  0  0  0  0
 28 58  1  0  0  0  0
 29 30  1  0  0  0  0
 29 59  1  0  0  0  0
 30 37  1  0  0  0  0
 30 60  1  0  0  0  0
 31 61  1  0  0  0  0
 31 62  1  0  0  0  0
 32 34  1  0  0  0  0
 32 38  1  1  0  0  0
 32 63  1  0  0  0  0
 33 35  1  0  0  0  0
 33 64  1  0  0  0  0
 33 65  1  0  0  0  0
 34 36  1  0  0  0  0
 34 66  1  0  0  0  0
 34 67  1  0  0  0  0
 35 36  1  0  0  0  0
 35 68  1  0  0  0  0
 35 69  1  0  0  0  0
 36 70  1  0  0  0  0
 36 71  1  0  0  0  0
 37 73  1  0  0  0  0
 37 74  1  0  0  0  0
 37 75  1  0  0  0  0
M  END
> <PUBCHEM_COMPOUND_CID>
118247456

> <PUBCHEM_COMPOUND_CANONICALIZED>
1

> <PUBCHEM_CACTVS_COMPLEXITY>
770

> <PUBCHEM_CACTVS_HBOND_ACCEPTOR>
13

> <PUBCHEM_CACTVS_HBOND_DONOR>
6

> <PUBCHEM_CACTVS_ROTATABLE_BOND>
6

> <PUBCHEM_CACTVS_SUBSKEYS>
AAADcfB4PAAAAAAAAAAAAAAAAAAAAAAAAAA0SIAAAAAAAEgAAAAAGgAACAAADRSwgAMCCAAABgAIAACQCAIAAAAAAAAAAAFAAAAREBIAAAQiQAAFAAAHAAHI6DwOAAAAAAAAAAAAAAIAABCAAAAAAAAAAA==

> <PUBCHEM_IUPAC_OPENEYE_NAME>
(2R,8R,11S)-11-hydroxy-10-(hydroxymethyl)-8-[(1R,3R)-3-methyl-2-[(2S,3S,5S)-3,4,5-trihydroxy-6-methyl-tetrahydropyran-2-yl]oxy-cyclohexoxy]-2,3,4,5,6,7a,8,10,11,11a-decahydropyrano[3,4-b][1,4]dioxonine-2-carboxylic acid

> <PUBCHEM_IUPAC_CAS_NAME>
(2R,8R,11S)-11-hydroxy-10-(hydroxymethyl)-8-[(1R,3R)-3-methyl-2-[[(2S,3S,5S)-3,4,5-trihydroxy-6-methyl-2-oxanyl]oxy]cyclohexyl]oxy-2,3,4,5,6,7a,8,10,11,11a-decahydropyrano[3,4-b][1,4]dioxonin-2-carboxylic acid

> <PUBCHEM_IUPAC_NAME_MARKUP>
(2<I>R</I>,8<I>R</I>,11<I>S</I>)-11-hydroxy-10-(hydroxymethyl)-8-[(1<I>R</I>,3<I>R</I>)-3-methyl-2-[(2<I>S</I>,3<I>S</I>,5<I>S</I>)-3,4,5-trihydroxy-6-methyloxan-2-yl]oxycyclohexyl]oxy-2,3,4,5,6,7<I>a</I>,8,10,11,11<I>a</I>-decahydropyrano[3,4-b][1,4]dioxonine-2-carboxylic acid

> <PUBCHEM_IUPAC_NAME>
(2R,8R,11S)-11-hydroxy-10-(hydroxymethyl)-8-[(1R,3R)-3-methyl-2-[(2S,3S,5S)-3,4,5-trihydroxy-6-methyloxan-2-yl]oxycyclohexyl]oxy-2,3,4,5,6,7a,8,10,11,11a-decahydropyrano[3,4-b][1,4]dioxonine-2-carboxylic acid

> <PUBCHEM_IUPAC_SYSTEMATIC_NAME>
(2R,8R,11S)-10-(hydroxymethyl)-8-[(1R,3R)-3-methyl-2-[(2S,3S,5S)-6-methyl-3,4,5-tris(oxidanyl)oxan-2-yl]oxy-cyclohexyl]oxy-11-oxidanyl-2,3,4,5,6,7a,8,10,11,11a-decahydropyrano[3,4-b][1,4]dioxonine-2-carboxylic acid

> <PUBCHEM_IUPAC_TRADITIONAL_NAME>
(2R,8R,11S)-11-hydroxy-10-methylol-8-[(1R,3R)-3-methyl-2-[(2S,3S,5S)-3,4,5-trihydroxy-6-methyl-tetrahydropyran-2-yl]oxy-cyclohexoxy]-2,3,4,5,6,7a,8,10,11,11a-decahydropyrano[3,4-b][1,4]dioxonin-2-carboxylic acid

> <PUBCHEM_IUPAC_INCHI>
InChI=1S/C25H42O13/c1-11-6-5-8-13(20(11)38-24-19(30)18(29)16(27)12(2)34-24)36-25-22-21(17(28)15(10-26)37-25)35-14(23(31)32)7-3-4-9-33-22/h11-22,24-30H,3-10H2,1-2H3,(H,31,32)/t11-,12?,13-,14-,15?,16-,17+,18?,19+,20?,21?,22?,24+,25-/m1/s1

> <PUBCHEM_IUPAC_INCHIKEY>
XSPSCVPLYHMYSD-DXHQYZQISA-N

> <PUBCHEM_XLOGP3_AA>
-0.5

> <PUBCHEM_EXACT_MASS>
550.26254139

> <PUBCHEM_MOLECULAR_FORMULA>
C25H42O13

> <PUBCHEM_MOLECULAR_WEIGHT>
550.6

> <PUBCHEM_OPENEYE_CAN_SMILES>
CC1CCCC(C1OC2C(C(C(C(O2)C)O)O)O)OC3C4C(C(C(O3)CO)O)OC(CCCCO4)C(=O)O

> <PUBCHEM_OPENEYE_ISO_SMILES>
C[C@@H]1CCC[C@H](C1O[C@H]2[C@H](C([C@@H](C(O2)C)O)O)O)O[C@H]3C4C([C@H](C(O3)CO)O)O[C@H](CCCCO4)C(=O)O

> <PUBCHEM_CACTVS_TPSA>
194

> <PUBCHEM_MONOISOTOPIC_WEIGHT>
550.26254139

> <PUBCHEM_TOTAL_CHARGE>
0

> <PUBCHEM_HEAVY_ATOM_COUNT>
38

> <PUBCHEM_ATOM_DEF_STEREO_COUNT>
8

> <PUBCHEM_ATOM_UDEF_STEREO_COUNT>
6

> <PUBCHEM_BOND_DEF_STEREO_COUNT>
0

> <PUBCHEM_BOND_UDEF_STEREO_COUNT>
0

> <PUBCHEM_ISOTOPIC_ATOM_COUNT>
0

> <PUBCHEM_COMPONENT_COUNT>
1

> <PUBCHEM_CACTVS_TAUTO_COUNT>
-1

> <PUBCHEM_COORDINATE_TYPE>
1
5
255

> <PUBCHEM_BONDANNOTATIONS>
15  1  5
20  1  6
29  10  6
16  26  6
14  2  3
25  2  5
24  31  3
30  37  3
32  38  5
21  4  3
22  5  3
23  7  6
27  8  5
28  9  3

$$$$
