 
  -OEChem-10192103282D

 66 69  0     1  0  0  0  0  0999 V2000
    7.8671   -0.5771    0.0000 O   0  0  0  0  0  0  0  0  0  0  0  0
    8.8671    2.1550    0.0000 O   0  0  0  0  0  0  0  0  0  0  0  0
    5.8671    0.4229    0.0000 O   0  0  0  0  0  0  0  0  0  0  0  0
    6.8671   -0.5771    0.0000 O   0  0  0  0  0  0  0  0  0  0  0  0
    5.1350   -0.5771    0.0000 O   0  0  0  0  0  0  0  0  0  0  0  0
    6.8671   -2.5770    0.0000 O   0  0  0  0  0  0  0  0  0  0  0  0
    5.1350   -3.5770    0.0000 O   0  0  0  0  0  0  0  0  0  0  0  0
    3.4030   -2.5770    0.0000 O   0  0  0  0  0  0  0  0  0  0  0  0
    2.5369   -1.0770    0.0000 O   0  0  0  0  0  0  0  0  0  0  0  0
    7.8671    0.4229    0.0000 C   0  0  3  0  0  0  0  0  0  0  0  0
    8.3671    1.2890    0.0000 C   0  0  3  0  0  0  0  0  0  0  0  0
    6.8671    0.4229    0.0000 C   0  0  3  0  0  0  0  0  0  0  0  0
    8.8671    0.4229    0.0000 C   0  0  0  0  0  0  0  0  0  0  0  0
    7.5010    1.7890    0.0000 C   0  0  0  0  0  0  0  0  0  0  0  0
    9.3671    1.2890    0.0000 C   0  0  0  0  0  0  0  0  0  0  0  0
    6.8671    1.4230    0.0000 C   0  0  0  0  0  0  0  0  0  0  0  0
    8.8671   -0.5771    0.0000 C   0  0  0  0  0  0  0  0  0  0  0  0
    8.0010    2.6550    0.0000 C   0  0  0  0  0  0  0  0  0  0  0  0
    5.8671    1.4230    0.0000 C   0  0  0  0  0  0  0  0  0  0  0  0
    9.8671    2.1550    0.0000 C   0  0  0  0  0  0  0  0  0  0  0  0
    6.0010   -1.0770    0.0000 C   0  0  3  0  0  0  0  0  0  0  0  0
   10.8671    2.1550    0.0000 C   0  0  0  0  0  0  0  0  0  0  0  0
    6.0010   -2.0770    0.0000 C   0  0  1  0  0  0  0  0  0  0  0  0
    5.1350   -2.5770    0.0000 C   0  0  2  0  0  0  0  0  0  0  0  0
    4.2690   -1.0770    0.0000 C   0  0  1  0  0  0  0  0  0  0  0  0
    4.2690   -2.0770    0.0000 C   0  0  1  0  0  0  0  0  0  0  0  0
   11.3671    3.0210    0.0000 C   0  0  0  0  0  0  0  0  0  0  0  0
    3.4030   -0.5771    0.0000 C   0  0  0  0  0  0  0  0  0  0  0  0
   12.3671    3.0210    0.0000 C   0  0  0  0  0  0  0  0  0  0  0  0
   12.8671    3.8870    0.0000 C   0  0  0  0  0  0  0  0  0  0  0  0
    9.4871    0.4229    0.0000 H   0  0  0  0  0  0  0  0  0  0  0  0
    8.8671    1.0430    0.0000 H   0  0  0  0  0  0  0  0  0  0  0  0
    6.9641    2.0990    0.0000 H   0  0  0  0  0  0  0  0  0  0  0  0
    7.1910    1.2520    0.0000 H   0  0  0  0  0  0  0  0  0  0  0  0
    9.2594    0.6784    0.0000 H   0  0  0  0  0  0  0  0  0  0  0  0
    9.9497    1.0769    0.0000 H   0  0  0  0  0  0  0  0  0  0  0  0
    7.4871    1.4230    0.0000 H   0  0  0  0  0  0  0  0  0  0  0  0
    6.8671    2.0430    0.0000 H   0  0  0  0  0  0  0  0  0  0  0  0
    8.8671   -1.1970    0.0000 H   0  0  0  0  0  0  0  0  0  0  0  0
    9.4871   -0.5771    0.0000 H   0  0  0  0  0  0  0  0  0  0  0  0
    8.3110    3.1919    0.0000 H   0  0  0  0  0  0  0  0  0  0  0  0
    7.4641    2.9650    0.0000 H   0  0  0  0  0  0  0  0  0  0  0  0
    5.8671    2.0430    0.0000 H   0  0  0  0  0  0  0  0  0  0  0  0
    5.2471    1.4230    0.0000 H   0  0  0  0  0  0  0  0  0  0  0  0
    9.9747    2.7656    0.0000 H   0  0  0  0  0  0  0  0  0  0  0  0
    9.2844    2.3670    0.0000 H   0  0  0  0  0  0  0  0  0  0  0  0
    6.0010   -0.4571    0.0000 H   0  0  0  0  0  0  0  0  0  0  0  0
   10.7594    1.5444    0.0000 H   0  0  0  0  0  0  0  0  0  0  0  0
   11.4497    1.9430    0.0000 H   0  0  0  0  0  0  0  0  0  0  0  0
    6.0010   -2.6970    0.0000 H   0  0  0  0  0  0  0  0  0  0  0  0
    4.5981   -2.8870    0.0000 H   0  0  0  0  0  0  0  0  0  0  0  0
    4.2690   -0.4571    0.0000 H   0  0  0  0  0  0  0  0  0  0  0  0
    4.2690   -2.6970    0.0000 H   0  0  0  0  0  0  0  0  0  0  0  0
   11.4747    3.6316    0.0000 H   0  0  0  0  0  0  0  0  0  0  0  0
   10.7845    3.2331    0.0000 H   0  0  0  0  0  0  0  0  0  0  0  0
    3.8015   -0.1021    0.0000 H   0  0  0  0  0  0  0  0  0  0  0  0
    3.0044   -0.1021    0.0000 H   0  0  0  0  0  0  0  0  0  0  0  0
    6.8671   -3.1970    0.0000 H   0  0  0  0  0  0  0  0  0  0  0  0
   12.2594    2.4104    0.0000 H   0  0  0  0  0  0  0  0  0  0  0  0
   12.9497    2.8090    0.0000 H   0  0  0  0  0  0  0  0  0  0  0  0
    4.5981   -3.8870    0.0000 H   0  0  0  0  0  0  0  0  0  0  0  0
    3.4030   -3.1970    0.0000 H   0  0  0  0  0  0  0  0  0  0  0  0
   13.4040    3.5770    0.0000 H   0  0  0  0  0  0  0  0  0  0  0  0
   13.1771    4.4240    0.0000 H   0  0  0  0  0  0  0  0  0  0  0  0
   12.3301    4.1970    0.0000 H   0  0  0  0  0  0  0  0  0  0  0  0
    2.0000   -0.7671    0.0000 H   0  0  0  0  0  0  0  0  0  0  0  0
  1 10  1  0  0  0  0
  1 17  1  0  0  0  0
  2 11  1  0  0  0  0
  2 18  1  0  0  0  0
  3 12  1  0  0  0  0
  3 19  1  0  0  0  0
  4 12  1  0  0  0  0
  4 21  1  0  0  0  0
  5 21  1  0  0  0  0
  5 25  1  0  0  0  0
 23  6  1  6  0  0  0
  6 58  1  0  0  0  0
 24  7  1  1  0  0  0
  7 61  1  0  0  0  0
 26  8  1  6  0  0  0
  8 62  1  0  0  0  0
  9 28  1  0  0  0  0
  9 66  1  0  0  0  0
 10 11  1  0  0  0  0
 10 12  1  0  0  0  0
 10 13  1  0  0  0  0
 11 14  1  0  0  0  0
 11 15  1  0  0  0  0
 12 16  1  0  0  0  0
 13 17  1  0  0  0  0
 13 31  1  0  0  0  0
 13 32  1  0  0  0  0
 14 18  1  0  0  0  0
 14 33  1  0  0  0  0
 14 34  1  0  0  0  0
 15 20  1  0  0  0  0
 15 35  1  0  0  0  0
 15 36  1  0  0  0  0
 16 19  1  0  0  0  0
 16 37  1  0  0  0  0
 16 38  1  0  0  0  0
 17 39  1  0  0  0  0
 17 40  1  0  0  0  0
 18 41  1  0  0  0  0
 18 42  1  0  0  0  0
 19 43  1  0  0  0  0
 19 44  1  0  0  0  0
 20 22  1  0  0  0  0
 20 45  1  0  0  0  0
 20 46  1  0  0  0  0
 21 23  1  0  0  0  0
 21 47  1  0  0  0  0
 22 27  1  0  0  0  0
 22 48  1  0  0  0  0
 22 49  1  0  0  0  0
 23 24  1  0  0  0  0
 23 50  1  0  0  0  0
 24 26  1  0  0  0  0
 24 51  1  0  0  0  0
 25 26  1  0  0  0  0
 25 28  1  1  0  0  0
 25 52  1  0  0  0  0
 26 53  1  0  0  0  0
 27 29  1  0  0  0  0
 27 54  1  0  0  0  0
 27 55  1  0  0  0  0
 28 56  1  0  0  0  0
 28 57  1  0  0  0  0
 29 30  1  0  0  0  0
 29 59  1  0  0  0  0
 29 60  1  0  0  0  0
 30 63  1  0  0  0  0
 30 64  1  0  0  0  0
 30 65  1  0  0  0  0
M  END
> <PUBCHEM_COMPOUND_CID>
69195930

> <PUBCHEM_COMPOUND_CANONICALIZED>
1

> <PUBCHEM_CACTVS_COMPLEXITY>
591

> <PUBCHEM_CACTVS_HBOND_ACCEPTOR>
9

> <PUBCHEM_CACTVS_HBOND_DONOR>
4

> <PUBCHEM_CACTVS_ROTATABLE_BOND>
10

> <PUBCHEM_CACTVS_SUBSKEYS>
AAADcfB4PAAAAAAAAAAAAAAAAABIkAAAAAAkAAAAAAAAAAAAAAAAGgAACAAADFSwgAMCCAAABgAAAAAAAAAAAAAAAAAAAAAAAAAREAIAAAAiQAAFAAAHAAHA4PwOgAAAAAAAAAAAAAAAAAAAAAAAAAAAAA==

> <PUBCHEM_IUPAC_OPENEYE_NAME>
(3R,4S,5S,6R)-2-[2-[2-(2-hexyloxetan-2-yl)oxetan-2-yl]oxetan-2-yl]oxy-6-(hydroxymethyl)tetrahydropyran-3,4,5-triol

> <PUBCHEM_IUPAC_CAS_NAME>
(3R,4S,5S,6R)-2-[[2-[2-(2-hexyl-2-oxetanyl)-2-oxetanyl]-2-oxetanyl]oxy]-6-(hydroxymethyl)oxane-3,4,5-triol

> <PUBCHEM_IUPAC_NAME_MARKUP>
(3<I>R</I>,4<I>S</I>,5<I>S</I>,6<I>R</I>)-2-[2-[2-(2-hexyloxetan-2-yl)oxetan-2-yl]oxetan-2-yl]oxy-6-(hydroxymethyl)oxane-3,4,5-triol

> <PUBCHEM_IUPAC_NAME>
(3R,4S,5S,6R)-2-[2-[2-(2-hexyloxetan-2-yl)oxetan-2-yl]oxetan-2-yl]oxy-6-(hydroxymethyl)oxane-3,4,5-triol

> <PUBCHEM_IUPAC_SYSTEMATIC_NAME>
(3R,4S,5S,6R)-2-[2-[2-(2-hexyloxetan-2-yl)oxetan-2-yl]oxetan-2-yl]oxy-6-(hydroxymethyl)oxane-3,4,5-triol

> <PUBCHEM_IUPAC_TRADITIONAL_NAME>
(3R,4S,5S,6R)-2-[2-[2-(2-hexyloxetan-2-yl)oxetan-2-yl]oxetan-2-yl]oxy-6-methylol-tetrahydropyran-3,4,5-triol

> <PUBCHEM_IUPAC_INCHI>
InChI=1S/C21H36O9/c1-2-3-4-5-6-19(7-10-26-19)20(8-11-27-20)21(9-12-28-21)30-18-17(25)16(24)15(23)14(13-22)29-18/h14-18,22-25H,2-13H2,1H3/t14-,15-,16+,17-,18?,19?,20?,21?/m1/s1

> <PUBCHEM_IUPAC_INCHIKEY>
VOQUKZZEOVNGEG-MCXVFTDGSA-N

> <PUBCHEM_XLOGP3_AA>
0.5

> <PUBCHEM_EXACT_MASS>
432.23593272

> <PUBCHEM_MOLECULAR_FORMULA>
C21H36O9

> <PUBCHEM_MOLECULAR_WEIGHT>
432.5

> <PUBCHEM_OPENEYE_CAN_SMILES>
CCCCCCC1(CCO1)C2(CCO2)C3(CCO3)OC4C(C(C(C(O4)CO)O)O)O

> <PUBCHEM_OPENEYE_ISO_SMILES>
CCCCCCC1(CCO1)C2(CCO2)C3(CCO3)OC4[C@@H]([C@H]([C@@H]([C@H](O4)CO)O)O)O

> <PUBCHEM_CACTVS_TPSA>
127

> <PUBCHEM_MONOISOTOPIC_WEIGHT>
432.23593272

> <PUBCHEM_TOTAL_CHARGE>
0

> <PUBCHEM_HEAVY_ATOM_COUNT>
30

> <PUBCHEM_ATOM_DEF_STEREO_COUNT>
4

> <PUBCHEM_ATOM_UDEF_STEREO_COUNT>
4

> <PUBCHEM_BOND_DEF_STEREO_COUNT>
0

> <PUBCHEM_BOND_UDEF_STEREO_COUNT>
0

> <PUBCHEM_ISOTOPIC_ATOM_COUNT>
0

> <PUBCHEM_COMPONENT_COUNT>
1

> <PUBCHEM_CACTVS_TAUTO_COUNT>
-1

> <PUBCHEM_COORDINATE_TYPE>
1
5
255

> <PUBCHEM_BONDANNOTATIONS>
10  13  3
11  15  3
25  28  5
12  4  3
21  4  3
23  6  6
24  7  5
26  8  6

$$$$
