 
  -OEChem-10192104122D

 84 87  0     1  0  0  0  0  0999 V2000
   15.3783   -1.0000    0.0000 O   0  0  0  0  0  0  0  0  0  0  0  0
    6.7181    1.0000    0.0000 O   0  0  0  0  0  0  0  0  0  0  0  0
   16.6104    1.8660    0.0000 O   0  0  0  0  0  0  0  0  0  0  0  0
    3.6200    1.3660    0.0000 O   0  0  0  0  0  0  0  0  0  0  0  0
   17.1104   -2.0000    0.0000 O   0  0  0  0  0  0  0  0  0  0  0  0
   18.8424   -1.0000    0.0000 O   0  0  0  0  0  0  0  0  0  0  0  0
    6.7181   -1.0000    0.0000 O   0  0  0  0  0  0  0  0  0  0  0  0
    4.9860   -2.0000    0.0000 O   0  0  0  0  0  0  0  0  0  0  0  0
   18.6104    1.8660    0.0000 O   0  0  0  0  0  0  0  0  0  0  0  0
    2.6200   -0.3660    0.0000 O   0  0  0  0  0  0  0  0  0  0  0  0
   17.1104    2.7320    0.0000 O   0  0  0  0  0  0  0  0  0  0  0  0
    2.6200    1.3660    0.0000 O   0  0  0  0  0  0  0  0  0  0  0  0
   14.5123    0.5000    0.0000 O   0  0  0  0  0  0  0  0  0  0  0  0
    7.5841   -0.5000    0.0000 O   0  0  0  0  0  0  0  0  0  0  0  0
   11.0482   -3.5000    0.0000 O   0  0  0  0  0  0  0  0  0  0  0  0
   11.0482    3.5000    0.0000 O   0  0  0  0  0  0  0  0  0  0  0  0
    9.3162   -2.5000    0.0000 O   0  0  0  0  0  0  0  0  0  0  0  0
   12.7803    2.5000    0.0000 O   0  0  0  0  0  0  0  0  0  0  0  0
   17.1104    1.0000    0.0000 C   0  0  2  0  0  0  0  0  0  0  0  0
    4.1200    0.5000    0.0000 C   0  0  2  0  0  0  0  0  0  0  0  0
   16.2444   -0.5000    0.0000 C   0  0  2  0  0  0  0  0  0  0  0  0
   16.2444    0.5000    0.0000 C   0  0  0  0  0  0  0  0  0  0  0  0
   17.9764    0.5000    0.0000 C   0  0  0  0  0  0  0  0  0  0  0  0
   17.1104   -1.0000    0.0000 C   0  0  1  0  0  0  0  0  0  0  0  0
    5.8520    0.5000    0.0000 C   0  0  2  0  0  0  0  0  0  0  0  0
    4.9860    1.0000    0.0000 C   0  0  0  0  0  0  0  0  0  0  0  0
   17.9764   -0.5000    0.0000 C   0  0  2  0  0  0  0  0  0  0  0  0
    4.1200   -0.5000    0.0000 C   0  0  0  0  0  0  0  0  0  0  0  0
    5.8520   -0.5000    0.0000 C   0  0  1  0  0  0  0  0  0  0  0  0
    4.9860   -1.0000    0.0000 C   0  0  2  0  0  0  0  0  0  0  0  0
   17.6104    1.8660    0.0000 C   0  0  0  0  0  0  0  0  0  0  0  0
    3.1200    0.5000    0.0000 C   0  0  0  0  0  0  0  0  0  0  0  0
   14.5123   -0.5000    0.0000 C   0  0  0  0  0  0  0  0  0  0  0  0
    7.5841    0.5000    0.0000 C   0  0  0  0  0  0  0  0  0  0  0  0
   13.6463   -1.0000    0.0000 C   0  0  0  0  0  0  0  0  0  0  0  0
    8.4501    1.0000    0.0000 C   0  0  0  0  0  0  0  0  0  0  0  0
   12.7803   -0.5000    0.0000 C   0  0  0  0  0  0  0  0  0  0  0  0
    9.3162    0.5000    0.0000 C   0  0  0  0  0  0  0  0  0  0  0  0
   11.9142   -1.0000    0.0000 C   0  0  0  0  0  0  0  0  0  0  0  0
   10.1822    1.0000    0.0000 C   0  0  0  0  0  0  0  0  0  0  0  0
   11.0482   -0.5000    0.0000 C   0  0  0  0  0  0  0  0  0  0  0  0
   11.0482    0.5000    0.0000 C   0  0  0  0  0  0  0  0  0  0  0  0
   11.9142   -2.0000    0.0000 C   0  0  0  0  0  0  0  0  0  0  0  0
   10.1822    2.0000    0.0000 C   0  0  0  0  0  0  0  0  0  0  0  0
   10.1822   -1.0000    0.0000 C   0  0  0  0  0  0  0  0  0  0  0  0
   11.9142    1.0000    0.0000 C   0  0  0  0  0  0  0  0  0  0  0  0
   11.0482   -2.5000    0.0000 C   0  0  0  0  0  0  0  0  0  0  0  0
   11.0482    2.5000    0.0000 C   0  0  0  0  0  0  0  0  0  0  0  0
   10.1822   -2.0000    0.0000 C   0  0  0  0  0  0  0  0  0  0  0  0
   11.9142    2.0000    0.0000 C   0  0  0  0  0  0  0  0  0  0  0  0
   15.7074   -0.1900    0.0000 H   0  0  0  0  0  0  0  0  0  0  0  0
   16.0323    1.0826    0.0000 H   0  0  0  0  0  0  0  0  0  0  0  0
   15.6338    0.3923    0.0000 H   0  0  0  0  0  0  0  0  0  0  0  0
   18.5870    0.3923    0.0000 H   0  0  0  0  0  0  0  0  0  0  0  0
   18.1885    1.0826    0.0000 H   0  0  0  0  0  0  0  0  0  0  0  0
   16.5734   -1.3100    0.0000 H   0  0  0  0  0  0  0  0  0  0  0  0
    5.8520    1.1200    0.0000 H   0  0  0  0  0  0  0  0  0  0  0  0
    5.3846    1.4750    0.0000 H   0  0  0  0  0  0  0  0  0  0  0  0
    4.5875    1.4750    0.0000 H   0  0  0  0  0  0  0  0  0  0  0  0
   17.9764   -1.1200    0.0000 H   0  0  0  0  0  0  0  0  0  0  0  0
    3.5094   -0.3923    0.0000 H   0  0  0  0  0  0  0  0  0  0  0  0
    3.9080   -1.0826    0.0000 H   0  0  0  0  0  0  0  0  0  0  0  0
    5.8520   -1.1200    0.0000 H   0  0  0  0  0  0  0  0  0  0  0  0
    4.4491   -1.3100    0.0000 H   0  0  0  0  0  0  0  0  0  0  0  0
   15.9904    1.8660    0.0000 H   0  0  0  0  0  0  0  0  0  0  0  0
    3.9300    1.9030    0.0000 H   0  0  0  0  0  0  0  0  0  0  0  0
   17.6473   -2.3100    0.0000 H   0  0  0  0  0  0  0  0  0  0  0  0
   19.3794   -0.6900    0.0000 H   0  0  0  0  0  0  0  0  0  0  0  0
    6.7181   -1.6200    0.0000 H   0  0  0  0  0  0  0  0  0  0  0  0
    4.4491   -2.3100    0.0000 H   0  0  0  0  0  0  0  0  0  0  0  0
   18.9204    2.4030    0.0000 H   0  0  0  0  0  0  0  0  0  0  0  0
    2.0000   -0.3660    0.0000 H   0  0  0  0  0  0  0  0  0  0  0  0
   13.6463   -1.6200    0.0000 H   0  0  0  0  0  0  0  0  0  0  0  0
    8.4501    1.6200    0.0000 H   0  0  0  0  0  0  0  0  0  0  0  0
   12.7803    0.1200    0.0000 H   0  0  0  0  0  0  0  0  0  0  0  0
    9.3162   -0.1200    0.0000 H   0  0  0  0  0  0  0  0  0  0  0  0
   12.4512   -2.3100    0.0000 H   0  0  0  0  0  0  0  0  0  0  0  0
    9.6452    2.3100    0.0000 H   0  0  0  0  0  0  0  0  0  0  0  0
    9.6452   -0.6900    0.0000 H   0  0  0  0  0  0  0  0  0  0  0  0
   12.4512    0.6900    0.0000 H   0  0  0  0  0  0  0  0  0  0  0  0
   11.5851   -3.8100    0.0000 H   0  0  0  0  0  0  0  0  0  0  0  0
   10.5113    3.8100    0.0000 H   0  0  0  0  0  0  0  0  0  0  0  0
    9.3162   -3.1200    0.0000 H   0  0  0  0  0  0  0  0  0  0  0  0
   12.7803    3.1200    0.0000 H   0  0  0  0  0  0  0  0  0  0  0  0
 21  1  1  6  0  0  0
  1 33  1  0  0  0  0
 25  2  1  1  0  0  0
  2 34  1  0  0  0  0
 19  3  1  1  0  0  0
  3 65  1  0  0  0  0
 20  4  1  6  0  0  0
  4 66  1  0  0  0  0
 24  5  1  1  0  0  0
  5 67  1  0  0  0  0
 27  6  1  1  0  0  0
  6 68  1  0  0  0  0
 29  7  1  6  0  0  0
  7 69  1  0  0  0  0
 30  8  1  6  0  0  0
  8 70  1  0  0  0  0
  9 31  1  0  0  0  0
  9 71  1  0  0  0  0
 10 32  1  0  0  0  0
 10 72  1  0  0  0  0
 11 31  2  0  0  0  0
 12 32  2  0  0  0  0
 13 33  2  0  0  0  0
 14 34  2  0  0  0  0
 15 47  1  0  0  0  0
 15 81  1  0  0  0  0
 16 48  1  0  0  0  0
 16 82  1  0  0  0  0
 17 49  1  0  0  0  0
 17 83  1  0  0  0  0
 18 50  1  0  0  0  0
 18 84  1  0  0  0  0
 19 22  1  0  0  0  0
 19 23  1  0  0  0  0
 19 31  1  0  0  0  0
 20 26  1  0  0  0  0
 20 28  1  0  0  0  0
 20 32  1  0  0  0  0
 21 22  1  0  0  0  0
 21 24  1  0  0  0  0
 21 51  1  0  0  0  0
 22 52  1  0  0  0  0
 22 53  1  0  0  0  0
 23 27  1  0  0  0  0
 23 54  1  0  0  0  0
 23 55  1  0  0  0  0
 24 27  1  0  0  0  0
 24 56  1  0  0  0  0
 25 26  1  0  0  0  0
 25 29  1  0  0  0  0
 25 57  1  0  0  0  0
 26 58  1  0  0  0  0
 26 59  1  0  0  0  0
 27 60  1  0  0  0  0
 28 30  1  0  0  0  0
 28 61  1  0  0  0  0
 28 62  1  0  0  0  0
 29 30  1  0  0  0  0
 29 63  1  0  0  0  0
 30 64  1  0  0  0  0
 33 35  1  0  0  0  0
 34 36  1  0  0  0  0
 35 37  2  0  0  0  0
 35 73  1  0  0  0  0
 36 38  2  0  0  0  0
 36 74  1  0  0  0  0
 37 39  1  0  0  0  0
 37 75  1  0  0  0  0
 38 40  1  0  0  0  0
 38 76  1  0  0  0  0
 39 41  1  0  0  0  0
 39 43  2  0  0  0  0
 40 42  1  0  0  0  0
 40 44  2  0  0  0  0
 41 42  1  0  0  0  0
 41 45  2  0  0  0  0
 42 46  2  0  0  0  0
 43 47  1  0  0  0  0
 43 77  1  0  0  0  0
 44 48  1  0  0  0  0
 44 78  1  0  0  0  0
 45 49  1  0  0  0  0
 45 79  1  0  0  0  0
 46 50  1  0  0  0  0
 46 80  1  0  0  0  0
 47 49  2  0  0  0  0
 48 50  2  0  0  0  0
M  END
> <PUBCHEM_COMPOUND_CID>
9918166

> <PUBCHEM_COMPOUND_CANONICALIZED>
1

> <PUBCHEM_CACTVS_COMPLEXITY>
1220

> <PUBCHEM_CACTVS_HBOND_ACCEPTOR>
18

> <PUBCHEM_CACTVS_HBOND_DONOR>
12

> <PUBCHEM_CACTVS_ROTATABLE_BOND>
11

> <PUBCHEM_CACTVS_SUBSKEYS>
AAADcfB8PgAAAAAAAAAAAAAAAAAAAAAAAAAwYMGAAAAAAAABQAAAGgAACAAADFSgmAIwDoAABgCIAiDSCAICAAAgIAAIiAFGiMgJNjKCMRKCcAElwBELuYfK7PzOoAABAAAQQABCAAIQACCAAAAAAAAAAA==

> <PUBCHEM_IUPAC_OPENEYE_NAME>
(1S,3R,4R,5R)-3-[(E)-3-[2-[2-[(E)-3-[(1R,2R,3R,5S)-5-carboxy-2,3,5-trihydroxy-cyclohexoxy]-3-oxo-prop-1-enyl]-4,5-dihydroxy-phenyl]-4,5-dihydroxy-phenyl]prop-2-enoyl]oxy-1,4,5-trihydroxy-cyclohexanecarboxylic acid

> <PUBCHEM_IUPAC_CAS_NAME>
(1S,3R,4R,5R)-3-[(E)-3-[2-[2-[(E)-3-[(1R,2R,3R,5S)-5-carboxy-2,3,5-trihydroxycyclohexyl]oxy-3-oxoprop-1-enyl]-4,5-dihydroxyphenyl]-4,5-dihydroxyphenyl]-1-oxoprop-2-enoxy]-1,4,5-trihydroxy-1-cyclohexanecarboxylic acid

> <PUBCHEM_IUPAC_NAME_MARKUP>
(1<I>S</I>,3<I>R</I>,4<I>R</I>,5<I>R</I>)-3-[(<I>E</I>)-3-[2-[2-[(<I>E</I>)-3-[(1<I>R</I>,2<I>R</I>,3<I>R</I>,5<I>S</I>)-5-carboxy-2,3,5-trihydroxycyclohexyl]oxy-3-oxoprop-1-enyl]-4,5-dihydroxyphenyl]-4,5-dihydroxyphenyl]prop-2-enoyl]oxy-1,4,5-trihydroxycyclohexane-1-carboxylic acid

> <PUBCHEM_IUPAC_NAME>
(1S,3R,4R,5R)-3-[(E)-3-[2-[2-[(E)-3-[(1R,2R,3R,5S)-5-carboxy-2,3,5-trihydroxycyclohexyl]oxy-3-oxoprop-1-enyl]-4,5-dihydroxyphenyl]-4,5-dihydroxyphenyl]prop-2-enoyl]oxy-1,4,5-trihydroxycyclohexane-1-carboxylic acid

> <PUBCHEM_IUPAC_SYSTEMATIC_NAME>
(1S,3R,4R,5R)-3-[(E)-3-[2-[2-[(E)-3-[(1R,2R,3R,5S)-5-carboxy-2,3,5-tris(oxidanyl)cyclohexyl]oxy-3-oxidanylidene-prop-1-enyl]-4,5-bis(oxidanyl)phenyl]-4,5-bis(oxidanyl)phenyl]prop-2-enoyl]oxy-1,4,5-tris(oxidanyl)cyclohexane-1-carboxylic acid

> <PUBCHEM_IUPAC_TRADITIONAL_NAME>
(1S,3R,4R,5R)-3-[(E)-3-[2-[2-[(E)-3-[(1R,2R,3R,5S)-5-carboxy-2,3,5-trihydroxy-cyclohexoxy]-3-keto-prop-1-enyl]-4,5-dihydroxy-phenyl]-4,5-dihydroxy-phenyl]acryloyl]oxy-1,4,5-trihydroxy-cyclohexanecarboxylic acid

> <PUBCHEM_IUPAC_INCHI>
InChI=1S/C32H34O18/c33-17-5-13(1-3-25(39)49-23-11-31(47,29(43)44)9-21(37)27(23)41)15(7-19(17)35)16-8-20(36)18(34)6-14(16)2-4-26(40)50-24-12-32(48,30(45)46)10-22(38)28(24)42/h1-8,21-24,27-28,33-38,41-42,47-48H,9-12H2,(H,43,44)(H,45,46)/b3-1+,4-2+/t21-,22-,23-,24-,27-,28-,31+,32+/m1/s1

> <PUBCHEM_IUPAC_INCHIKEY>
UCIQBCLGNROEGN-AJCBEZQSSA-N

> <PUBCHEM_XLOGP3_AA>
-1.1

> <PUBCHEM_EXACT_MASS>
706.17451423

> <PUBCHEM_MOLECULAR_FORMULA>
C32H34O18

> <PUBCHEM_MOLECULAR_WEIGHT>
706.6

> <PUBCHEM_OPENEYE_CAN_SMILES>
C1C(C(C(CC1(C(=O)O)O)OC(=O)C=CC2=CC(=C(C=C2C3=CC(=C(C=C3C=CC(=O)OC4CC(CC(C4O)O)(C(=O)O)O)O)O)O)O)O)O

> <PUBCHEM_OPENEYE_ISO_SMILES>
C1[C@@](C[C@H]([C@@H]([C@@H]1O)O)OC(=O)/C=C/C2=CC(=C(C=C2C3=CC(=C(C=C3/C=C/C(=O)O[C@H]4[C@@H]([C@@H](C[C@@](C4)(O)C(=O)O)O)O)O)O)O)O)(O)C(=O)O

> <PUBCHEM_CACTVS_TPSA>
330

> <PUBCHEM_MONOISOTOPIC_WEIGHT>
706.17451423

> <PUBCHEM_TOTAL_CHARGE>
0

> <PUBCHEM_HEAVY_ATOM_COUNT>
50

> <PUBCHEM_ATOM_DEF_STEREO_COUNT>
8

> <PUBCHEM_ATOM_UDEF_STEREO_COUNT>
0

> <PUBCHEM_BOND_DEF_STEREO_COUNT>
2

> <PUBCHEM_BOND_UDEF_STEREO_COUNT>
0

> <PUBCHEM_ISOTOPIC_ATOM_COUNT>
0

> <PUBCHEM_COMPONENT_COUNT>
1

> <PUBCHEM_CACTVS_TAUTO_COUNT>
-1

> <PUBCHEM_COORDINATE_TYPE>
1
5
255

> <PUBCHEM_BONDANNOTATIONS>
21  1  6
25  2  5
19  3  5
39  41  8
39  43  8
20  4  6
40  42  8
40  44  8
41  45  8
42  46  8
43  47  8
44  48  8
45  49  8
46  50  8
47  49  8
48  50  8
24  5  5
27  6  5
29  7  6
30  8  6

$$$$
