 
  -OEChem-10192103442D

 79 82  0     1  0  0  0  0  0999 V2000
    7.7331    0.1550    0.0000 O   0  0  0  0  0  0  0  0  0  0  0  0
    6.0010   -2.8450    0.0000 O   0  0  0  0  0  0  0  0  0  0  0  0
    6.0010    0.1550    0.0000 O   0  0  0  0  0  0  0  0  0  0  0  0
    4.2690   -2.8450    0.0000 O   0  0  0  0  0  0  0  0  0  0  0  0
    7.7331    3.1550    0.0000 O   0  0  0  0  0  0  0  0  0  0  0  0
    7.7331   -1.8450    0.0000 O   0  0  0  0  0  0  0  0  0  0  0  0
    4.2690   -1.8450    0.0000 O   0  0  0  0  0  0  0  0  0  0  0  0
    6.0010    1.1550    0.0000 O   0  0  0  0  0  0  0  0  0  0  0  0
    9.4651    1.1550    0.0000 O   0  0  0  0  0  0  0  0  0  0  0  0
    9.4651    3.1550    0.0000 O   0  0  0  0  0  0  0  0  0  0  0  0
    6.0010   -4.8450    0.0000 O   0  0  0  0  0  0  0  0  0  0  0  0
    4.2690   -5.8450    0.0000 O   0  0  0  0  0  0  0  0  0  0  0  0
    2.5369   -4.8450    0.0000 O   0  0  0  0  0  0  0  0  0  0  0  0
    3.4030   -0.3450    0.0000 O   0  0  0  0  0  0  0  0  0  0  0  0
    6.0010    4.1550    0.0000 O   0  0  0  0  0  0  0  0  0  0  0  0
    2.5369   -1.8450    0.0000 O   0  0  0  0  0  0  0  0  0  0  0  0
    6.0010   -1.8450    0.0000 C   0  0  2  0  0  0  0  0  0  0  0  0
    6.8671   -1.3450    0.0000 C   0  0  2  0  0  0  0  0  0  0  0  0
    5.1350   -1.3450    0.0000 C   0  0  1  0  0  0  0  0  0  0  0  0
    6.8671   -0.3450    0.0000 C   0  0  2  0  0  0  0  0  0  0  0  0
    7.7331    1.1550    0.0000 C   0  0  1  0  0  0  0  0  0  0  0  0
    5.1350   -0.3450    0.0000 C   0  0  1  0  0  0  0  0  0  0  0  0
    6.8671    1.6550    0.0000 C   0  0  1  0  0  0  0  0  0  0  0  0
    8.5991    1.6550    0.0000 C   0  0  2  0  0  0  0  0  0  0  0  0
    5.1350   -3.3450    0.0000 C   0  0  2  0  0  0  0  0  0  0  0  0
    5.1350   -4.3450    0.0000 C   0  0  1  0  0  0  0  0  0  0  0  0
    6.8671    2.6550    0.0000 C   0  0  1  0  0  0  0  0  0  0  0  0
    4.2690   -4.8450    0.0000 C   0  0  2  0  0  0  0  0  0  0  0  0
    8.5991    2.6550    0.0000 C   0  0  1  0  0  0  0  0  0  0  0  0
    3.4030   -4.3450    0.0000 C   0  0  1  0  0  0  0  0  0  0  0  0
    3.4030   -3.3450    0.0000 C   0  0  1  0  0  0  0  0  0  0  0  0
    4.2690    0.1550    0.0000 C   0  0  0  0  0  0  0  0  0  0  0  0
    6.0010    3.1550    0.0000 C   0  0  0  0  0  0  0  0  0  0  0  0
    2.5369   -2.8450    0.0000 C   0  0  0  0  0  0  0  0  0  0  0  0
    9.4651    4.1550    0.0000 C   0  0  0  0  0  0  0  0  0  0  0  0
   10.3312    4.6550    0.0000 C   0  0  0  0  0  0  0  0  0  0  0  0
   11.1972    4.1550    0.0000 C   0  0  0  0  0  0  0  0  0  0  0  0
   10.3312    5.6550    0.0000 C   0  0  0  0  0  0  0  0  0  0  0  0
   12.0632    4.6550    0.0000 C   0  0  0  0  0  0  0  0  0  0  0  0
   11.1972    6.1550    0.0000 C   0  0  0  0  0  0  0  0  0  0  0  0
   12.0632    5.6550    0.0000 C   0  0  0  0  0  0  0  0  0  0  0  0
    5.4641   -2.1550    0.0000 H   0  0  0  0  0  0  0  0  0  0  0  0
    6.8671   -1.9650    0.0000 H   0  0  0  0  0  0  0  0  0  0  0  0
    5.1350   -1.9650    0.0000 H   0  0  0  0  0  0  0  0  0  0  0  0
    7.4040   -0.6550    0.0000 H   0  0  0  0  0  0  0  0  0  0  0  0
    7.1962    0.8450    0.0000 H   0  0  0  0  0  0  0  0  0  0  0  0
    5.1350    0.2750    0.0000 H   0  0  0  0  0  0  0  0  0  0  0  0
    6.8671    1.0350    0.0000 H   0  0  0  0  0  0  0  0  0  0  0  0
    8.5991    1.0350    0.0000 H   0  0  0  0  0  0  0  0  0  0  0  0
    5.1350   -2.7250    0.0000 H   0  0  0  0  0  0  0  0  0  0  0  0
    5.1350   -4.9650    0.0000 H   0  0  0  0  0  0  0  0  0  0  0  0
    6.8671    3.2750    0.0000 H   0  0  0  0  0  0  0  0  0  0  0  0
    3.7320   -5.1550    0.0000 H   0  0  0  0  0  0  0  0  0  0  0  0
    8.5991    3.2750    0.0000 H   0  0  0  0  0  0  0  0  0  0  0  0
    3.4030   -4.9650    0.0000 H   0  0  0  0  0  0  0  0  0  0  0  0
    3.4030   -2.7250    0.0000 H   0  0  0  0  0  0  0  0  0  0  0  0
    4.6675    0.6299    0.0000 H   0  0  0  0  0  0  0  0  0  0  0  0
    3.8705    0.6299    0.0000 H   0  0  0  0  0  0  0  0  0  0  0  0
    5.3905    3.2627    0.0000 H   0  0  0  0  0  0  0  0  0  0  0  0
    5.7890    2.5724    0.0000 H   0  0  0  0  0  0  0  0  0  0  0  0
    7.7331   -2.4650    0.0000 H   0  0  0  0  0  0  0  0  0  0  0  0
    3.7320   -1.5350    0.0000 H   0  0  0  0  0  0  0  0  0  0  0  0
    1.9264   -2.7373    0.0000 H   0  0  0  0  0  0  0  0  0  0  0  0
    2.3249   -3.4276    0.0000 H   0  0  0  0  0  0  0  0  0  0  0  0
    5.4641    1.4650    0.0000 H   0  0  0  0  0  0  0  0  0  0  0  0
   10.0021    1.4650    0.0000 H   0  0  0  0  0  0  0  0  0  0  0  0
    6.0010   -5.4650    0.0000 H   0  0  0  0  0  0  0  0  0  0  0  0
    3.7320   -6.1550    0.0000 H   0  0  0  0  0  0  0  0  0  0  0  0
    2.0000   -4.5350    0.0000 H   0  0  0  0  0  0  0  0  0  0  0  0
    2.8660   -0.0350    0.0000 H   0  0  0  0  0  0  0  0  0  0  0  0
    9.2531    4.7376    0.0000 H   0  0  0  0  0  0  0  0  0  0  0  0
    8.8546    4.0473    0.0000 H   0  0  0  0  0  0  0  0  0  0  0  0
    5.4641    4.4650    0.0000 H   0  0  0  0  0  0  0  0  0  0  0  0
    2.0000   -1.5350    0.0000 H   0  0  0  0  0  0  0  0  0  0  0  0
   11.1972    3.5350    0.0000 H   0  0  0  0  0  0  0  0  0  0  0  0
    9.7942    5.9650    0.0000 H   0  0  0  0  0  0  0  0  0  0  0  0
   12.6002    4.3450    0.0000 H   0  0  0  0  0  0  0  0  0  0  0  0
   11.1972    6.7750    0.0000 H   0  0  0  0  0  0  0  0  0  0  0  0
   12.6002    5.9650    0.0000 H   0  0  0  0  0  0  0  0  0  0  0  0
 20  1  1  1  0  0  0
 21  1  1  1  0  0  0
 17  2  1  1  0  0  0
 25  2  1  1  0  0  0
  3 20  1  0  0  0  0
  3 22  1  0  0  0  0
  4 25  1  0  0  0  0
  4 31  1  0  0  0  0
  5 27  1  0  0  0  0
  5 29  1  0  0  0  0
 18  6  1  6  0  0  0
  6 61  1  0  0  0  0
 19  7  1  6  0  0  0
  7 62  1  0  0  0  0
 23  8  1  6  0  0  0
  8 65  1  0  0  0  0
 24  9  1  6  0  0  0
  9 66  1  0  0  0  0
 29 10  1  1  0  0  0
 10 35  1  0  0  0  0
 26 11  1  6  0  0  0
 11 67  1  0  0  0  0
 28 12  1  1  0  0  0
 12 68  1  0  0  0  0
 30 13  1  6  0  0  0
 13 69  1  0  0  0  0
 14 32  1  0  0  0  0
 14 70  1  0  0  0  0
 15 33  1  0  0  0  0
 15 73  1  0  0  0  0
 16 34  1  0  0  0  0
 16 74  1  0  0  0  0
 17 18  1  0  0  0  0
 17 19  1  0  0  0  0
 17 42  1  0  0  0  0
 18 20  1  0  0  0  0
 18 43  1  0  0  0  0
 19 22  1  0  0  0  0
 19 44  1  0  0  0  0
 20 45  1  0  0  0  0
 21 23  1  0  0  0  0
 21 24  1  0  0  0  0
 21 46  1  0  0  0  0
 22 32  1  1  0  0  0
 22 47  1  0  0  0  0
 23 27  1  0  0  0  0
 23 48  1  0  0  0  0
 24 29  1  0  0  0  0
 24 49  1  0  0  0  0
 25 26  1  0  0  0  0
 25 50  1  0  0  0  0
 26 28  1  0  0  0  0
 26 51  1  0  0  0  0
 27 33  1  1  0  0  0
 27 52  1  0  0  0  0
 28 30  1  0  0  0  0
 28 53  1  0  0  0  0
 29 54  1  0  0  0  0
 30 31  1  0  0  0  0
 30 55  1  0  0  0  0
 31 34  1  1  0  0  0
 31 56  1  0  0  0  0
 32 57  1  0  0  0  0
 32 58  1  0  0  0  0
 33 59  1  0  0  0  0
 33 60  1  0  0  0  0
 34 63  1  0  0  0  0
 34 64  1  0  0  0  0
 35 36  1  0  0  0  0
 35 71  1  0  0  0  0
 35 72  1  0  0  0  0
 36 37  2  0  0  0  0
 36 38  1  0  0  0  0
 37 39  1  0  0  0  0
 37 75  1  0  0  0  0
 38 40  2  0  0  0  0
 38 76  1  0  0  0  0
 39 41  2  0  0  0  0
 39 77  1  0  0  0  0
 40 41  1  0  0  0  0
 40 78  1  0  0  0  0
 41 79  1  0  0  0  0
M  END
> <PUBCHEM_COMPOUND_CID>
72205478

> <PUBCHEM_COMPOUND_CANONICALIZED>
1

> <PUBCHEM_CACTVS_COMPLEXITY>
787

> <PUBCHEM_CACTVS_HBOND_ACCEPTOR>
16

> <PUBCHEM_CACTVS_HBOND_DONOR>
10

> <PUBCHEM_CACTVS_ROTATABLE_BOND>
10

> <PUBCHEM_CACTVS_SUBSKEYS>
AAADcfB4PgAAAAAAAAAAAAAAAAAAAAAAAAA0SJEAAAAAAAABAAAAGgAACAAADBSwmAMwCIAABgCAAiBCAAACAAAgAAAIiAAACIgZNiKAMRiicAAlwAEPqAfA4CwOAAAAAAAAAAAAAAAAAAAAAAAAAAAAAA==

> <PUBCHEM_IUPAC_OPENEYE_NAME>
(2S,3R,4S,5S,6R)-2-[(2S,3R,4S,5R,6R)-2-[(2R,3R,4S,5R,6R)-2-benzyloxy-3,5-dihydroxy-6-(hydroxymethyl)tetrahydropyran-4-yl]oxy-3,5-dihydroxy-6-(hydroxymethyl)tetrahydropyran-4-yl]oxy-6-(hydroxymethyl)tetrahydropyran-3,4,5-triol

> <PUBCHEM_IUPAC_CAS_NAME>
(2S,3R,4S,5S,6R)-2-[[(2S,3R,4S,5R,6R)-2-[[(2R,3R,4S,5R,6R)-3,5-dihydroxy-2-(hydroxymethyl)-6-phenylmethoxy-4-oxanyl]oxy]-3,5-dihydroxy-6-(hydroxymethyl)-4-oxanyl]oxy]-6-(hydroxymethyl)oxane-3,4,5-triol

> <PUBCHEM_IUPAC_NAME_MARKUP>
(2<I>S</I>,3<I>R</I>,4<I>S</I>,5<I>S</I>,6<I>R</I>)-2-[(2<I>S</I>,3<I>R</I>,4<I>S</I>,5<I>R</I>,6<I>R</I>)-2-[(2<I>R</I>,3<I>R</I>,4<I>S</I>,5<I>R</I>,6<I>R</I>)-3,5-dihydroxy-2-(hydroxymethyl)-6-phenylmethoxyoxan-4-yl]oxy-3,5-dihydroxy-6-(hydroxymethyl)oxan-4-yl]oxy-6-(hydroxymethyl)oxane-3,4,5-triol

> <PUBCHEM_IUPAC_NAME>
(2S,3R,4S,5S,6R)-2-[(2S,3R,4S,5R,6R)-2-[(2R,3R,4S,5R,6R)-3,5-dihydroxy-2-(hydroxymethyl)-6-phenylmethoxyoxan-4-yl]oxy-3,5-dihydroxy-6-(hydroxymethyl)oxan-4-yl]oxy-6-(hydroxymethyl)oxane-3,4,5-triol

> <PUBCHEM_IUPAC_SYSTEMATIC_NAME>
(2R,3S,4S,5R,6S)-2-(hydroxymethyl)-6-[(2R,3R,4S,5R,6S)-2-(hydroxymethyl)-6-[(2R,3R,4S,5R,6R)-2-(hydroxymethyl)-3,5-bis(oxidanyl)-6-phenylmethoxy-oxan-4-yl]oxy-3,5-bis(oxidanyl)oxan-4-yl]oxy-oxane-3,4,5-triol

> <PUBCHEM_IUPAC_TRADITIONAL_NAME>
(2S,3R,4S,5S,6R)-2-[(2S,3R,4S,5R,6R)-2-[(2R,3R,4S,5R,6R)-2-benzoxy-3,5-dihydroxy-6-methylol-tetrahydropyran-4-yl]oxy-3,5-dihydroxy-6-methylol-tetrahydropyran-4-yl]oxy-6-methylol-tetrahydropyran-3,4,5-triol

> <PUBCHEM_IUPAC_INCHI>
InChI=1S/C25H38O16/c26-6-11-14(29)17(32)18(33)24(38-11)40-22-16(31)13(8-28)39-25(20(22)35)41-21-15(30)12(7-27)37-23(19(21)34)36-9-10-4-2-1-3-5-10/h1-5,11-35H,6-9H2/t11-,12-,13-,14-,15-,16-,17+,18-,19-,20-,21+,22+,23-,24+,25+/m1/s1

> <PUBCHEM_IUPAC_INCHIKEY>
NVPUKNFRHMBDQC-ZYUMJEOBSA-N

> <PUBCHEM_XLOGP3>
-3.9

> <PUBCHEM_EXACT_MASS>
594.21598512

> <PUBCHEM_MOLECULAR_FORMULA>
C25H38O16

> <PUBCHEM_MOLECULAR_WEIGHT>
594.6

> <PUBCHEM_OPENEYE_CAN_SMILES>
C1=CC=C(C=C1)COC2C(C(C(C(O2)CO)O)OC3C(C(C(C(O3)CO)O)OC4C(C(C(C(O4)CO)O)O)O)O)O

> <PUBCHEM_OPENEYE_ISO_SMILES>
C1=CC=C(C=C1)CO[C@H]2[C@@H]([C@H]([C@@H]([C@H](O2)CO)O)O[C@H]3[C@@H]([C@H]([C@@H]([C@H](O3)CO)O)O[C@H]4[C@@H]([C@H]([C@@H]([C@H](O4)CO)O)O)O)O)O

> <PUBCHEM_CACTVS_TPSA>
258

> <PUBCHEM_MONOISOTOPIC_WEIGHT>
594.21598512

> <PUBCHEM_TOTAL_CHARGE>
0

> <PUBCHEM_HEAVY_ATOM_COUNT>
41

> <PUBCHEM_ATOM_DEF_STEREO_COUNT>
15

> <PUBCHEM_ATOM_UDEF_STEREO_COUNT>
0

> <PUBCHEM_BOND_DEF_STEREO_COUNT>
0

> <PUBCHEM_BOND_UDEF_STEREO_COUNT>
0

> <PUBCHEM_ISOTOPIC_ATOM_COUNT>
0

> <PUBCHEM_COMPONENT_COUNT>
1

> <PUBCHEM_CACTVS_TAUTO_COUNT>
-1

> <PUBCHEM_COORDINATE_TYPE>
1
5
255

> <PUBCHEM_BONDANNOTATIONS>
20  1  5
21  1  5
29  10  5
26  11  6
28  12  5
30  13  6
17  2  5
25  2  5
22  32  5
27  33  5
31  34  5
36  37  8
36  38  8
37  39  8
38  40  8
39  41  8
40  41  8
18  6  6
19  7  6
23  8  6
24  9  6

$$$$
