 
  -OEChem-10192104452D

 75 77  0     1  0  0  0  0  0999 V2000
    9.4651   -0.7780    0.0000 O   0  0  0  0  0  0  0  0  0  0  0  0
    7.7331   -0.7780    0.0000 O   0  0  0  0  0  0  0  0  0  0  0  0
    6.0010    0.2220    0.0000 O   0  0  0  0  0  0  0  0  0  0  0  0
    6.0010   -2.7780    0.0000 O   0  0  0  0  0  0  0  0  0  0  0  0
    9.4651   -2.7780    0.0000 O   0  0  0  0  0  0  0  0  0  0  0  0
    7.7331   -3.7780    0.0000 O   0  0  0  0  0  0  0  0  0  0  0  0
    4.2690    0.2220    0.0000 O   0  0  0  0  0  0  0  0  0  0  0  0
   13.7953    3.7220    0.0000 O   0  0  0  0  0  0  0  0  0  0  0  0
    6.0010    2.2220    0.0000 O   0  0  0  0  0  0  0  0  0  0  0  0
    4.2690    3.2220    0.0000 O   0  0  0  0  0  0  0  0  0  0  0  0
    2.5369    2.2220    0.0000 O   0  0  0  0  0  0  0  0  0  0  0  0
   11.1972    3.2220    0.0000 C   0  0  0  0  0  0  0  0  0  0  0  0
   11.1972    2.2220    0.0000 C   0  0  3  0  0  0  0  0  0  0  0  0
   10.3312    1.7220    0.0000 C   0  0  0  0  0  0  0  0  0  0  0  0
   12.0632    3.7220    0.0000 C   0  0  0  0  0  0  0  0  0  0  0  0
   12.0632    1.7220    0.0000 C   0  0  0  0  0  0  0  0  0  0  0  0
   10.3312    0.7220    0.0000 C   0  0  0  0  0  0  0  0  0  0  0  0
   10.6972    4.0880    0.0000 C   0  0  0  0  0  0  0  0  0  0  0  0
   10.1972    3.2220    0.0000 C   0  0  0  0  0  0  0  0  0  0  0  0
    9.4651    0.2220    0.0000 C   0  0  3  0  0  0  0  0  0  0  0  0
    8.5991   -1.2780    0.0000 C   0  0  2  0  0  0  0  0  0  0  0  0
    6.8671   -1.2780    0.0000 C   0  0  1  0  0  0  0  0  0  0  0  0
    8.5991   -2.2780    0.0000 C   0  0  1  0  0  0  0  0  0  0  0  0
    6.8671   -2.2780    0.0000 C   0  0  2  0  0  0  0  0  0  0  0  0
    7.7331   -2.7780    0.0000 C   0  0  2  0  0  0  0  0  0  0  0  0
   12.9292    3.2220    0.0000 C   0  0  0  0  0  0  0  0  0  0  0  0
   12.9292    2.2220    0.0000 C   0  0  0  0  0  0  0  0  0  0  0  0
   12.0632    0.7220    0.0000 C   0  0  0  0  0  0  0  0  0  0  0  0
    6.0010   -0.7780    0.0000 C   0  0  0  0  0  0  0  0  0  0  0  0
    8.5991    0.7220    0.0000 C   0  0  0  0  0  0  0  0  0  0  0  0
    5.1350    0.7220    0.0000 C   0  0  2  0  0  0  0  0  0  0  0  0
    5.1350    1.7220    0.0000 C   0  0  1  0  0  0  0  0  0  0  0  0
    4.2690    2.2220    0.0000 C   0  0  2  0  0  0  0  0  0  0  0  0
    3.4030    1.7220    0.0000 C   0  0  1  0  0  0  0  0  0  0  0  0
    3.4030    0.7220    0.0000 C   0  0  0  0  0  0  0  0  0  0  0  0
   11.1972    1.6020    0.0000 H   0  0  0  0  0  0  0  0  0  0  0  0
   10.1191    2.3046    0.0000 H   0  0  0  0  0  0  0  0  0  0  0  0
    9.7206    1.6143    0.0000 H   0  0  0  0  0  0  0  0  0  0  0  0
   12.4617    4.1969    0.0000 H   0  0  0  0  0  0  0  0  0  0  0  0
   11.6647    4.1969    0.0000 H   0  0  0  0  0  0  0  0  0  0  0  0
   10.5432    0.1394    0.0000 H   0  0  0  0  0  0  0  0  0  0  0  0
   10.9417    0.8296    0.0000 H   0  0  0  0  0  0  0  0  0  0  0  0
   11.2341    4.3980    0.0000 H   0  0  0  0  0  0  0  0  0  0  0  0
   10.3872    4.6250    0.0000 H   0  0  0  0  0  0  0  0  0  0  0  0
   10.1603    3.7780    0.0000 H   0  0  0  0  0  0  0  0  0  0  0  0
   10.1972    3.8420    0.0000 H   0  0  0  0  0  0  0  0  0  0  0  0
    9.5772    3.2220    0.0000 H   0  0  0  0  0  0  0  0  0  0  0  0
   10.1972    2.6020    0.0000 H   0  0  0  0  0  0  0  0  0  0  0  0
   10.0021   -0.0880    0.0000 H   0  0  0  0  0  0  0  0  0  0  0  0
    8.5991   -0.6580    0.0000 H   0  0  0  0  0  0  0  0  0  0  0  0
    6.8671   -0.6580    0.0000 H   0  0  0  0  0  0  0  0  0  0  0  0
    8.5991   -2.8980    0.0000 H   0  0  0  0  0  0  0  0  0  0  0  0
    6.8671   -2.8980    0.0000 H   0  0  0  0  0  0  0  0  0  0  0  0
    7.1962   -3.0880    0.0000 H   0  0  0  0  0  0  0  0  0  0  0  0
   13.4662    1.9120    0.0000 H   0  0  0  0  0  0  0  0  0  0  0  0
    5.3905   -0.6704    0.0000 H   0  0  0  0  0  0  0  0  0  0  0  0
    5.7890   -1.3606    0.0000 H   0  0  0  0  0  0  0  0  0  0  0  0
   11.4432    0.7220    0.0000 H   0  0  0  0  0  0  0  0  0  0  0  0
   12.0632    0.1020    0.0000 H   0  0  0  0  0  0  0  0  0  0  0  0
   12.6832    0.7220    0.0000 H   0  0  0  0  0  0  0  0  0  0  0  0
    8.9091    1.2589    0.0000 H   0  0  0  0  0  0  0  0  0  0  0  0
    8.0622    1.0320    0.0000 H   0  0  0  0  0  0  0  0  0  0  0  0
    8.2891    0.1851    0.0000 H   0  0  0  0  0  0  0  0  0  0  0  0
    5.6720    1.0320    0.0000 H   0  0  0  0  0  0  0  0  0  0  0  0
    5.1350    2.3420    0.0000 H   0  0  0  0  0  0  0  0  0  0  0  0
    3.7320    2.5320    0.0000 H   0  0  0  0  0  0  0  0  0  0  0  0
    3.4030    2.3420    0.0000 H   0  0  0  0  0  0  0  0  0  0  0  0
    5.4641   -2.4680    0.0000 H   0  0  0  0  0  0  0  0  0  0  0  0
   10.0021   -2.4680    0.0000 H   0  0  0  0  0  0  0  0  0  0  0  0
    7.1962   -4.0880    0.0000 H   0  0  0  0  0  0  0  0  0  0  0  0
    2.7924    0.8296    0.0000 H   0  0  0  0  0  0  0  0  0  0  0  0
    3.1909    0.1394    0.0000 H   0  0  0  0  0  0  0  0  0  0  0  0
    6.0010    2.8420    0.0000 H   0  0  0  0  0  0  0  0  0  0  0  0
    3.7320    3.5320    0.0000 H   0  0  0  0  0  0  0  0  0  0  0  0
    2.0000    1.9120    0.0000 H   0  0  0  0  0  0  0  0  0  0  0  0
  1 20  1  0  0  0  0
 21  1  1  1  0  0  0
  2 21  1  0  0  0  0
  2 22  1  0  0  0  0
  3 29  1  0  0  0  0
 31  3  1  6  0  0  0
 24  4  1  6  0  0  0
  4 68  1  0  0  0  0
 23  5  1  6  0  0  0
  5 69  1  0  0  0  0
 25  6  1  1  0  0  0
  6 70  1  0  0  0  0
  7 31  1  0  0  0  0
  7 35  1  0  0  0  0
  8 26  2  0  0  0  0
 32  9  1  1  0  0  0
  9 73  1  0  0  0  0
 33 10  1  6  0  0  0
 10 74  1  0  0  0  0
 34 11  1  1  0  0  0
 11 75  1  0  0  0  0
 12 13  1  0  0  0  0
 12 15  1  0  0  0  0
 12 18  1  0  0  0  0
 12 19  1  0  0  0  0
 13 14  1  0  0  0  0
 13 16  1  0  0  0  0
 13 36  1  0  0  0  0
 14 17  1  0  0  0  0
 14 37  1  0  0  0  0
 14 38  1  0  0  0  0
 15 26  1  0  0  0  0
 15 39  1  0  0  0  0
 15 40  1  0  0  0  0
 16 27  2  0  0  0  0
 16 28  1  0  0  0  0
 17 20  1  0  0  0  0
 17 41  1  0  0  0  0
 17 42  1  0  0  0  0
 18 43  1  0  0  0  0
 18 44  1  0  0  0  0
 18 45  1  0  0  0  0
 19 46  1  0  0  0  0
 19 47  1  0  0  0  0
 19 48  1  0  0  0  0
 20 30  1  0  0  0  0
 20 49  1  0  0  0  0
 21 23  1  0  0  0  0
 21 50  1  0  0  0  0
 22 24  1  0  0  0  0
 22 29  1  1  0  0  0
 22 51  1  0  0  0  0
 23 25  1  0  0  0  0
 23 52  1  0  0  0  0
 24 25  1  0  0  0  0
 24 53  1  0  0  0  0
 25 54  1  0  0  0  0
 26 27  1  0  0  0  0
 27 55  1  0  0  0  0
 28 58  1  0  0  0  0
 28 59  1  0  0  0  0
 28 60  1  0  0  0  0
 29 56  1  0  0  0  0
 29 57  1  0  0  0  0
 30 61  1  0  0  0  0
 30 62  1  0  0  0  0
 30 63  1  0  0  0  0
 31 32  1  0  0  0  0
 31 64  1  0  0  0  0
 32 33  1  0  0  0  0
 32 65  1  0  0  0  0
 33 34  1  0  0  0  0
 33 66  1  0  0  0  0
 34 35  1  0  0  0  0
 34 67  1  0  0  0  0
 35 71  1  0  0  0  0
 35 72  1  0  0  0  0
M  END
> <PUBCHEM_COMPOUND_CID>
45360253

> <PUBCHEM_COMPOUND_CANONICALIZED>
1

> <PUBCHEM_CACTVS_COMPLEXITY>
756

> <PUBCHEM_CACTVS_HBOND_ACCEPTOR>
11

> <PUBCHEM_CACTVS_HBOND_DONOR>
6

> <PUBCHEM_CACTVS_ROTATABLE_BOND>
8

> <PUBCHEM_CACTVS_SUBSKEYS>
AAADcfB4PAAAAAAAAAAAAAAAAAAAAAAAAAAkSIAAAAAAAAAAAAAAGgAACAAADxSwgAMCCAAABgCIAqBSAAAAAAAgAAAACAEAAEgREBIAAQAiQAAFgAAPAQPI6PyPgAAAAAAAAAAAAAAAAAAAAAAAAAAAAA==

> <PUBCHEM_IUPAC_OPENEYE_NAME>
3,5,5-trimethyl-4-[3-[(2R,3R,4S,5S,6R)-3,4,5-trihydroxy-6-[[(2S,3R,4S,5R)-3,4,5-trihydroxytetrahydropyran-2-yl]oxymethyl]tetrahydropyran-2-yl]oxybutyl]cyclohex-2-en-1-one

> <PUBCHEM_IUPAC_CAS_NAME>
3,5,5-trimethyl-4-[3-[[(2R,3R,4S,5S,6R)-3,4,5-trihydroxy-6-[[(2S,3R,4S,5R)-3,4,5-trihydroxy-2-oxanyl]oxymethyl]-2-oxanyl]oxy]butyl]-1-cyclohex-2-enone

> <PUBCHEM_IUPAC_NAME_MARKUP>
3,5,5-trimethyl-4-[3-[(2<I>R</I>,3<I>R</I>,4<I>S</I>,5<I>S</I>,6<I>R</I>)-3,4,5-trihydroxy-6-[[(2<I>S</I>,3<I>R</I>,4<I>S</I>,5<I>R</I>)-3,4,5-trihydroxyoxan-2-yl]oxymethyl]oxan-2-yl]oxybutyl]cyclohex-2-en-1-one

> <PUBCHEM_IUPAC_NAME>
3,5,5-trimethyl-4-[3-[(2R,3R,4S,5S,6R)-3,4,5-trihydroxy-6-[[(2S,3R,4S,5R)-3,4,5-trihydroxyoxan-2-yl]oxymethyl]oxan-2-yl]oxybutyl]cyclohex-2-en-1-one

> <PUBCHEM_IUPAC_SYSTEMATIC_NAME>
3,5,5-trimethyl-4-[3-[(2R,3R,4S,5S,6R)-3,4,5-tris(oxidanyl)-6-[[(2S,3R,4S,5R)-3,4,5-tris(oxidanyl)oxan-2-yl]oxymethyl]oxan-2-yl]oxybutyl]cyclohex-2-en-1-one

> <PUBCHEM_IUPAC_TRADITIONAL_NAME>
3,5,5-trimethyl-4-[3-[(2R,3R,4S,5S,6R)-3,4,5-trihydroxy-6-[[(2S,3R,4S,5R)-3,4,5-trihydroxytetrahydropyran-2-yl]oxymethyl]tetrahydropyran-2-yl]oxybutyl]cyclohex-2-en-1-one

> <PUBCHEM_IUPAC_INCHI>
InChI=1S/C24H40O11/c1-11-7-13(25)8-24(3,4)14(11)6-5-12(2)34-23-21(31)19(29)18(28)16(35-23)10-33-22-20(30)17(27)15(26)9-32-22/h7,12,14-23,26-31H,5-6,8-10H2,1-4H3/t12?,14?,15-,16-,17+,18-,19+,20-,21-,22+,23-/m1/s1

> <PUBCHEM_IUPAC_INCHIKEY>
LYJZPTUVRHPVNB-WRZQMYAXSA-N

> <PUBCHEM_XLOGP3_AA>
-1.8

> <PUBCHEM_EXACT_MASS>
504.25706209

> <PUBCHEM_MOLECULAR_FORMULA>
C24H40O11

> <PUBCHEM_MOLECULAR_WEIGHT>
504.6

> <PUBCHEM_OPENEYE_CAN_SMILES>
CC1=CC(=O)CC(C1CCC(C)OC2C(C(C(C(O2)COC3C(C(C(CO3)O)O)O)O)O)O)(C)C

> <PUBCHEM_OPENEYE_ISO_SMILES>
CC1=CC(=O)CC(C1CCC(C)O[C@H]2[C@@H]([C@H]([C@@H]([C@H](O2)CO[C@H]3[C@@H]([C@H]([C@@H](CO3)O)O)O)O)O)O)(C)C

> <PUBCHEM_CACTVS_TPSA>
175

> <PUBCHEM_MONOISOTOPIC_WEIGHT>
504.25706209

> <PUBCHEM_TOTAL_CHARGE>
0

> <PUBCHEM_HEAVY_ATOM_COUNT>
35

> <PUBCHEM_ATOM_DEF_STEREO_COUNT>
9

> <PUBCHEM_ATOM_UDEF_STEREO_COUNT>
2

> <PUBCHEM_BOND_DEF_STEREO_COUNT>
0

> <PUBCHEM_BOND_UDEF_STEREO_COUNT>
0

> <PUBCHEM_ISOTOPIC_ATOM_COUNT>
0

> <PUBCHEM_COMPONENT_COUNT>
1

> <PUBCHEM_CACTVS_TAUTO_COUNT>
-1

> <PUBCHEM_COORDINATE_TYPE>
1
5
255

> <PUBCHEM_BONDANNOTATIONS>
21  1  5
33  10  6
34  11  5
13  14  3
20  30  3
22  29  5
31  3  6
24  4  6
23  5  6
25  6  5
32  9  5

$$$$
