 
  -OEChem-10192103262D

 86 91  0     1  0  0  0  0  0999 V2000
    9.8512    1.0268    0.0000 O   0  0  0  0  0  0  0  0  0  0  0  0
   12.7697    1.9751    0.0000 O   0  0  0  0  0  0  0  0  0  0  0  0
   10.6603   -3.5610    0.0000 O   0  0  0  0  0  0  0  0  0  0  0  0
    8.9282   -3.5610    0.0000 O   0  0  0  0  0  0  0  0  0  0  0  0
    8.9282   -2.5610    0.0000 O   0  0  0  0  0  0  0  0  0  0  0  0
   13.7032    5.5571    0.0000 O   0  0  0  0  0  0  0  0  0  0  0  0
   10.6603   -5.5610    0.0000 O   0  0  0  0  0  0  0  0  0  0  0  0
    8.9282   -6.5610    0.0000 O   0  0  0  0  0  0  0  0  0  0  0  0
    7.1962   -5.5610    0.0000 O   0  0  0  0  0  0  0  0  0  0  0  0
   11.9729    6.5601    0.0000 O   0  0  0  0  0  0  0  0  0  0  0  0
    6.3301   -4.0610    0.0000 O   0  0  0  0  0  0  0  0  0  0  0  0
    5.4641   -2.5610    0.0000 O   0  0  0  0  0  0  0  0  0  0  0  0
    2.0000   -3.5610    0.0000 O   0  0  0  0  0  0  0  0  0  0  0  0
    2.0000   -5.5610    0.0000 O   0  0  0  0  0  0  0  0  0  0  0  0
   11.4693    1.0268    0.0000 C   0  0  1  0  0  0  0  0  0  0  0  0
   11.1603    1.9778    0.0000 C   0  0  1  0  0  0  0  0  0  0  0  0
   10.6603    0.4390    0.0000 C   0  0  1  0  0  0  0  0  0  0  0  0
   11.9660    2.5601    0.0000 C   0  0  1  0  0  0  0  0  0  0  0  0
   10.1603    1.9778    0.0000 C   0  0  0  0  0  0  0  0  0  0  0  0
   12.4633    1.0294    0.0000 C   0  0  0  0  0  0  0  0  0  0  0  0
   10.6603   -0.5610    0.0000 C   0  0  0  0  0  0  0  0  0  0  0  0
   11.9677    3.5601    0.0000 C   0  0  0  0  0  0  0  0  0  0  0  0
    9.7942   -1.0610    0.0000 C   0  0  0  0  0  0  0  0  0  0  0  0
   11.5263   -1.0610    0.0000 C   0  0  0  0  0  0  0  0  0  0  0  0
   12.8346    4.0586    0.0000 C   0  0  0  0  0  0  0  0  0  0  0  0
   11.1026    4.0616    0.0000 C   0  0  0  0  0  0  0  0  0  0  0  0
    9.7942   -2.0610    0.0000 C   0  0  0  0  0  0  0  0  0  0  0  0
   11.5263   -2.0610    0.0000 C   0  0  0  0  0  0  0  0  0  0  0  0
   10.6603   -2.5610    0.0000 C   0  0  0  0  0  0  0  0  0  0  0  0
   12.8363    5.0586    0.0000 C   0  0  0  0  0  0  0  0  0  0  0  0
   11.1043    5.0616    0.0000 C   0  0  0  0  0  0  0  0  0  0  0  0
    9.7942   -4.0610    0.0000 C   0  0  2  0  0  0  0  0  0  0  0  0
    9.7942   -5.0610    0.0000 C   0  0  1  0  0  0  0  0  0  0  0  0
    8.9282   -5.5610    0.0000 C   0  0  2  0  0  0  0  0  0  0  0  0
   11.9712    5.5601    0.0000 C   0  0  0  0  0  0  0  0  0  0  0  0
    8.0622   -5.0610    0.0000 C   0  0  1  0  0  0  0  0  0  0  0  0
    8.0622   -4.0610    0.0000 C   0  0  1  0  0  0  0  0  0  0  0  0
    7.1962   -3.5610    0.0000 C   0  0  0  0  0  0  0  0  0  0  0  0
    8.0622   -2.0610    0.0000 C   0  0  0  0  0  0  0  0  0  0  0  0
   14.5684    5.0556    0.0000 C   0  0  0  0  0  0  0  0  0  0  0  0
    5.4641   -3.5610    0.0000 C   0  0  0  0  0  0  0  0  0  0  0  0
    4.5981   -4.0610    0.0000 C   0  0  0  0  0  0  0  0  0  0  0  0
    3.7320   -3.5610    0.0000 C   0  0  0  0  0  0  0  0  0  0  0  0
    4.5981   -5.0610    0.0000 C   0  0  0  0  0  0  0  0  0  0  0  0
    2.8660   -4.0610    0.0000 C   0  0  0  0  0  0  0  0  0  0  0  0
    3.7320   -5.5610    0.0000 C   0  0  0  0  0  0  0  0  0  0  0  0
    2.8660   -5.0610    0.0000 C   0  0  0  0  0  0  0  0  0  0  0  0
    2.0000   -2.5610    0.0000 C   0  0  0  0  0  0  0  0  0  0  0  0
   11.7330    0.2187    0.0000 H   0  0  0  0  0  0  0  0  0  0  0  0
   10.8986    2.7866    0.0000 H   0  0  0  0  0  0  0  0  0  0  0  0
   10.1078    0.1575    0.0000 H   0  0  0  0  0  0  0  0  0  0  0  0
   12.5188    2.8408    0.0000 H   0  0  0  0  0  0  0  0  0  0  0  0
   10.2251    2.5945    0.0000 H   0  0  0  0  0  0  0  0  0  0  0  0
    9.5538    2.1068    0.0000 H   0  0  0  0  0  0  0  0  0  0  0  0
   12.3998    0.4126    0.0000 H   0  0  0  0  0  0  0  0  0  0  0  0
   13.0700    0.9013    0.0000 H   0  0  0  0  0  0  0  0  0  0  0  0
    9.2573   -0.7510    0.0000 H   0  0  0  0  0  0  0  0  0  0  0  0
   12.0632   -0.7510    0.0000 H   0  0  0  0  0  0  0  0  0  0  0  0
   13.3710    3.7476    0.0000 H   0  0  0  0  0  0  0  0  0  0  0  0
   10.5651    3.7525    0.0000 H   0  0  0  0  0  0  0  0  0  0  0  0
   12.0632   -2.3710    0.0000 H   0  0  0  0  0  0  0  0  0  0  0  0
   10.5679    5.3725    0.0000 H   0  0  0  0  0  0  0  0  0  0  0  0
    9.7942   -3.4410    0.0000 H   0  0  0  0  0  0  0  0  0  0  0  0
    9.7942   -5.6810    0.0000 H   0  0  0  0  0  0  0  0  0  0  0  0
    8.3913   -5.8710    0.0000 H   0  0  0  0  0  0  0  0  0  0  0  0
    7.5252   -4.7510    0.0000 H   0  0  0  0  0  0  0  0  0  0  0  0
    8.0622   -3.4410    0.0000 H   0  0  0  0  0  0  0  0  0  0  0  0
    7.5947   -3.0860    0.0000 H   0  0  0  0  0  0  0  0  0  0  0  0
    6.7976   -3.0860    0.0000 H   0  0  0  0  0  0  0  0  0  0  0  0
   11.1972   -5.2510    0.0000 H   0  0  0  0  0  0  0  0  0  0  0  0
    9.4651   -6.8710    0.0000 H   0  0  0  0  0  0  0  0  0  0  0  0
    7.1962   -6.1810    0.0000 H   0  0  0  0  0  0  0  0  0  0  0  0
   11.4365    6.8710    0.0000 H   0  0  0  0  0  0  0  0  0  0  0  0
    8.3722   -1.5240    0.0000 H   0  0  0  0  0  0  0  0  0  0  0  0
    7.5252   -1.7510    0.0000 H   0  0  0  0  0  0  0  0  0  0  0  0
    7.7522   -2.5979    0.0000 H   0  0  0  0  0  0  0  0  0  0  0  0
   14.2575    4.5192    0.0000 H   0  0  0  0  0  0  0  0  0  0  0  0
   15.1048    4.7446    0.0000 H   0  0  0  0  0  0  0  0  0  0  0  0
   14.8793    5.5920    0.0000 H   0  0  0  0  0  0  0  0  0  0  0  0
    3.7320   -2.9410    0.0000 H   0  0  0  0  0  0  0  0  0  0  0  0
    5.1350   -5.3710    0.0000 H   0  0  0  0  0  0  0  0  0  0  0  0
    3.7320   -6.1810    0.0000 H   0  0  0  0  0  0  0  0  0  0  0  0
    2.0000   -6.1810    0.0000 H   0  0  0  0  0  0  0  0  0  0  0  0
    2.6200   -2.5610    0.0000 H   0  0  0  0  0  0  0  0  0  0  0  0
    2.0000   -1.9410    0.0000 H   0  0  0  0  0  0  0  0  0  0  0  0
    1.3800   -2.5610    0.0000 H   0  0  0  0  0  0  0  0  0  0  0  0
  1 17  1  0  0  0  0
  1 19  1  0  0  0  0
  2 18  1  0  0  0  0
  2 20  1  0  0  0  0
  3 29  1  0  0  0  0
 32  3  1  1  0  0  0
  4 32  1  0  0  0  0
  4 37  1  0  0  0  0
  5 27  1  0  0  0  0
  5 39  1  0  0  0  0
  6 30  1  0  0  0  0
  6 40  1  0  0  0  0
 33  7  1  6  0  0  0
  7 70  1  0  0  0  0
 34  8  1  1  0  0  0
  8 71  1  0  0  0  0
 36  9  1  6  0  0  0
  9 72  1  0  0  0  0
 10 35  1  0  0  0  0
 10 73  1  0  0  0  0
 11 38  1  0  0  0  0
 11 41  1  0  0  0  0
 12 41  2  0  0  0  0
 13 45  1  0  0  0  0
 13 48  1  0  0  0  0
 14 47  1  0  0  0  0
 14 83  1  0  0  0  0
 15 16  1  0  0  0  0
 15 17  1  0  0  0  0
 15 20  1  0  0  0  0
 15 49  1  1  0  0  0
 16 18  1  0  0  0  0
 16 19  1  0  0  0  0
 16 50  1  1  0  0  0
 17 21  1  1  0  0  0
 17 51  1  0  0  0  0
 18 22  1  1  0  0  0
 18 52  1  0  0  0  0
 19 53  1  0  0  0  0
 19 54  1  0  0  0  0
 20 55  1  0  0  0  0
 20 56  1  0  0  0  0
 21 23  2  0  0  0  0
 21 24  1  0  0  0  0
 22 25  2  0  0  0  0
 22 26  1  0  0  0  0
 23 27  1  0  0  0  0
 23 57  1  0  0  0  0
 24 28  2  0  0  0  0
 24 58  1  0  0  0  0
 25 30  1  0  0  0  0
 25 59  1  0  0  0  0
 26 31  2  0  0  0  0
 26 60  1  0  0  0  0
 27 29  2  0  0  0  0
 28 29  1  0  0  0  0
 28 61  1  0  0  0  0
 30 35  2  0  0  0  0
 31 35  1  0  0  0  0
 31 62  1  0  0  0  0
 32 33  1  0  0  0  0
 32 63  1  0  0  0  0
 33 34  1  0  0  0  0
 33 64  1  0  0  0  0
 34 36  1  0  0  0  0
 34 65  1  0  0  0  0
 36 37  1  0  0  0  0
 36 66  1  0  0  0  0
 37 38  1  1  0  0  0
 37 67  1  0  0  0  0
 38 68  1  0  0  0  0
 38 69  1  0  0  0  0
 39 74  1  0  0  0  0
 39 75  1  0  0  0  0
 39 76  1  0  0  0  0
 40 77  1  0  0  0  0
 40 78  1  0  0  0  0
 40 79  1  0  0  0  0
 41 42  1  0  0  0  0
 42 43  2  0  0  0  0
 42 44  1  0  0  0  0
 43 45  1  0  0  0  0
 43 80  1  0  0  0  0
 44 46  2  0  0  0  0
 44 81  1  0  0  0  0
 45 47  2  0  0  0  0
 46 47  1  0  0  0  0
 46 82  1  0  0  0  0
 48 84  1  0  0  0  0
 48 85  1  0  0  0  0
 48 86  1  0  0  0  0
M  END
> <PUBCHEM_COMPOUND_CID>
78319676

> <PUBCHEM_COMPOUND_CANONICALIZED>
1

> <PUBCHEM_CACTVS_COMPLEXITY>
1050

> <PUBCHEM_CACTVS_HBOND_ACCEPTOR>
14

> <PUBCHEM_CACTVS_HBOND_DONOR>
5

> <PUBCHEM_CACTVS_ROTATABLE_BOND>
11

> <PUBCHEM_CACTVS_SUBSKEYS>
AAADcfB8PAAAAAAAAAAAAAAAAAAAASJAAAA0YMEAAAASAAABUAAAGgAACAAADRSwmAMyDoAABgCIAiDSCAACCAAkIAAIiAEGiMgdNjKGNRqieSOlwBEPuYfK7PzOoAABAAAAQABAAAIAAACAAAAAAAAAAA==

> <PUBCHEM_IUPAC_OPENEYE_NAME>
[(2R,3S,4S,5R,6S)-6-[4-[(3S,3aR,6S,6aR)-3-(4-hydroxy-3-methoxy-phenyl)-1,3,3a,4,6,6a-hexahydrofuro[3,4-c]furan-6-yl]-2-methoxy-phenoxy]-3,4,5-trihydroxy-tetrahydropyran-2-yl]methyl 4-hydroxy-3-methoxy-benzoate

> <PUBCHEM_IUPAC_CAS_NAME>
4-hydroxy-3-methoxybenzoic acid [(2R,3S,4S,5R,6S)-6-[4-[(3S,3aR,6S,6aR)-3-(4-hydroxy-3-methoxyphenyl)-1,3,3a,4,6,6a-hexahydrofuro[3,4-c]furan-6-yl]-2-methoxyphenoxy]-3,4,5-trihydroxy-2-oxanyl]methyl ester

> <PUBCHEM_IUPAC_NAME_MARKUP>
[(2<I>R</I>,3<I>S</I>,4<I>S</I>,5<I>R</I>,6<I>S</I>)-6-[4-[(3<I>S</I>,3<I>a</I><I>R</I>,6<I>S</I>,6<I>a</I><I>R</I>)-3-(4-hydroxy-3-methoxyphenyl)-1,3,3<I>a</I>,4,6,6<I>a</I>-hexahydrofuro[3,4-c]furan-6-yl]-2-methoxyphenoxy]-3,4,5-trihydroxyoxan-2-yl]methyl 4-hydroxy-3-methoxybenzoate

> <PUBCHEM_IUPAC_NAME>
[(2R,3S,4S,5R,6S)-6-[4-[(3S,3aR,6S,6aR)-3-(4-hydroxy-3-methoxyphenyl)-1,3,3a,4,6,6a-hexahydrofuro[3,4-c]furan-6-yl]-2-methoxyphenoxy]-3,4,5-trihydroxyoxan-2-yl]methyl 4-hydroxy-3-methoxybenzoate

> <PUBCHEM_IUPAC_SYSTEMATIC_NAME>
[(2R,3S,4S,5R,6S)-6-[4-[(3S,3aR,6S,6aR)-3-(3-methoxy-4-oxidanyl-phenyl)-1,3,3a,4,6,6a-hexahydrofuro[3,4-c]furan-6-yl]-2-methoxy-phenoxy]-3,4,5-tris(oxidanyl)oxan-2-yl]methyl 3-methoxy-4-oxidanyl-benzoate

> <PUBCHEM_IUPAC_TRADITIONAL_NAME>
4-hydroxy-3-methoxy-benzoic acid [(2R,3S,4S,5R,6S)-6-[4-[(3S,3aR,6S,6aR)-3-(4-hydroxy-3-methoxy-phenyl)-1,3,3a,4,6,6a-hexahydrofuro[3,4-c]furan-6-yl]-2-methoxy-phenoxy]-3,4,5-trihydroxy-tetrahydropyran-2-yl]methyl ester

> <PUBCHEM_IUPAC_INCHI>
InChI=1S/C34H38O14/c1-41-24-10-16(4-7-21(24)35)31-19-13-45-32(20(19)14-44-31)17-6-9-23(26(11-17)43-3)47-34-30(39)29(38)28(37)27(48-34)15-46-33(40)18-5-8-22(36)25(12-18)42-2/h4-12,19-20,27-32,34-39H,13-15H2,1-3H3/t19-,20-,27+,28+,29-,30+,31+,32+,34+/m0/s1

> <PUBCHEM_IUPAC_INCHIKEY>
BSCWMDYQCAAFJN-OTHQGAAASA-N

> <PUBCHEM_XLOGP3_AA>
1.8

> <PUBCHEM_EXACT_MASS>
670.22615588

> <PUBCHEM_MOLECULAR_FORMULA>
C34H38O14

> <PUBCHEM_MOLECULAR_WEIGHT>
670.7

> <PUBCHEM_OPENEYE_CAN_SMILES>
COC1=C(C=CC(=C1)C2C3COC(C3CO2)C4=CC(=C(C=C4)OC5C(C(C(C(O5)COC(=O)C6=CC(=C(C=C6)O)OC)O)O)O)OC)O

> <PUBCHEM_OPENEYE_ISO_SMILES>
COC1=C(C=CC(=C1)[C@@H]2[C@H]3CO[C@@H]([C@H]3CO2)C4=CC(=C(C=C4)O[C@H]5[C@@H]([C@H]([C@@H]([C@H](O5)COC(=O)C6=CC(=C(C=C6)O)OC)O)O)O)OC)O

> <PUBCHEM_CACTVS_TPSA>
192

> <PUBCHEM_MONOISOTOPIC_WEIGHT>
670.22615588

> <PUBCHEM_TOTAL_CHARGE>
0

> <PUBCHEM_HEAVY_ATOM_COUNT>
48

> <PUBCHEM_ATOM_DEF_STEREO_COUNT>
9

> <PUBCHEM_ATOM_UDEF_STEREO_COUNT>
0

> <PUBCHEM_BOND_DEF_STEREO_COUNT>
0

> <PUBCHEM_BOND_UDEF_STEREO_COUNT>
0

> <PUBCHEM_ISOTOPIC_ATOM_COUNT>
0

> <PUBCHEM_COMPONENT_COUNT>
1

> <PUBCHEM_CACTVS_TAUTO_COUNT>
-1

> <PUBCHEM_COORDINATE_TYPE>
1
5
255

> <PUBCHEM_BONDANNOTATIONS>
15  49  5
16  50  5
17  21  5
18  22  5
21  23  8
21  24  8
22  25  8
22  26  8
23  27  8
24  28  8
25  30  8
26  31  8
27  29  8
28  29  8
32  3  5
30  35  8
31  35  8
37  38  5
42  43  8
42  44  8
43  45  8
44  46  8
45  47  8
46  47  8
33  7  6
34  8  5
36  9  6

$$$$
