 
  -OEChem-10192103572D

 36 35  0     0  0  0  0  0  0999 V2000
   12.9292    0.7500    0.0000 O   0  0  0  0  0  0  0  0  0  0  0  0
    2.5369    0.7500    0.0000 O   0  0  0  0  0  0  0  0  0  0  0  0
    3.4030   -0.7500    0.0000 O   0  0  0  0  0  0  0  0  0  0  0  0
    9.4651   -0.2500    0.0000 C   0  0  0  0  0  0  0  0  0  0  0  0
   10.3312   -0.7500    0.0000 C   0  0  0  0  0  0  0  0  0  0  0  0
    8.5991   -0.7500    0.0000 C   0  0  0  0  0  0  0  0  0  0  0  0
   11.1972   -0.2500    0.0000 C   0  0  0  0  0  0  0  0  0  0  0  0
    7.7331   -0.2500    0.0000 C   0  0  0  0  0  0  0  0  0  0  0  0
   12.0632   -0.7500    0.0000 C   0  0  0  0  0  0  0  0  0  0  0  0
    6.8671   -0.7500    0.0000 C   0  0  0  0  0  0  0  0  0  0  0  0
   12.9292   -0.2500    0.0000 C   0  0  0  0  0  0  0  0  0  0  0  0
   13.7953   -0.7500    0.0000 C   0  0  0  0  0  0  0  0  0  0  0  0
    6.0010   -0.2500    0.0000 C   0  0  0  0  0  0  0  0  0  0  0  0
    5.1350    0.2500    0.0000 C   0  0  0  0  0  0  0  0  0  0  0  0
    4.2690    0.7500    0.0000 C   0  0  0  0  0  0  0  0  0  0  0  0
    3.4030    0.2500    0.0000 C   0  0  0  0  0  0  0  0  0  0  0  0
    9.8637    0.2249    0.0000 H   0  0  0  0  0  0  0  0  0  0  0  0
    9.0666    0.2249    0.0000 H   0  0  0  0  0  0  0  0  0  0  0  0
    9.9326   -1.2250    0.0000 H   0  0  0  0  0  0  0  0  0  0  0  0
   10.7297   -1.2250    0.0000 H   0  0  0  0  0  0  0  0  0  0  0  0
    8.2006   -1.2250    0.0000 H   0  0  0  0  0  0  0  0  0  0  0  0
    8.9976   -1.2250    0.0000 H   0  0  0  0  0  0  0  0  0  0  0  0
   11.5957    0.2249    0.0000 H   0  0  0  0  0  0  0  0  0  0  0  0
   10.7987    0.2249    0.0000 H   0  0  0  0  0  0  0  0  0  0  0  0
    8.1316    0.2249    0.0000 H   0  0  0  0  0  0  0  0  0  0  0  0
    7.3346    0.2249    0.0000 H   0  0  0  0  0  0  0  0  0  0  0  0
   11.6647   -1.2250    0.0000 H   0  0  0  0  0  0  0  0  0  0  0  0
   12.4617   -1.2250    0.0000 H   0  0  0  0  0  0  0  0  0  0  0  0
    6.4685   -1.2250    0.0000 H   0  0  0  0  0  0  0  0  0  0  0  0
    7.2656   -1.2250    0.0000 H   0  0  0  0  0  0  0  0  0  0  0  0
   13.4853   -1.2869    0.0000 H   0  0  0  0  0  0  0  0  0  0  0  0
   14.3322   -1.0600    0.0000 H   0  0  0  0  0  0  0  0  0  0  0  0
   14.1053   -0.2131    0.0000 H   0  0  0  0  0  0  0  0  0  0  0  0
    4.6675    1.2250    0.0000 H   0  0  0  0  0  0  0  0  0  0  0  0
    3.8705    1.2250    0.0000 H   0  0  0  0  0  0  0  0  0  0  0  0
    2.0000    0.4400    0.0000 H   0  0  0  0  0  0  0  0  0  0  0  0
  1 11  2  0  0  0  0
  2 16  1  0  0  0  0
  2 36  1  0  0  0  0
  3 16  2  0  0  0  0
  4  5  1  0  0  0  0
  4  6  1  0  0  0  0
  4 17  1  0  0  0  0
  4 18  1  0  0  0  0
  5  7  1  0  0  0  0
  5 19  1  0  0  0  0
  5 20  1  0  0  0  0
  6  8  1  0  0  0  0
  6 21  1  0  0  0  0
  6 22  1  0  0  0  0
  7  9  1  0  0  0  0
  7 23  1  0  0  0  0
  7 24  1  0  0  0  0
  8 10  1  0  0  0  0
  8 25  1  0  0  0  0
  8 26  1  0  0  0  0
  9 11  1  0  0  0  0
  9 27  1  0  0  0  0
  9 28  1  0  0  0  0
 10 13  1  0  0  0  0
 10 29  1  0  0  0  0
 10 30  1  0  0  0  0
 11 12  1  0  0  0  0
 12 31  1  0  0  0  0
 12 32  1  0  0  0  0
 12 33  1  0  0  0  0
 13 14  3  0  0  0  0
 14 15  1  0  0  0  0
 15 16  1  0  0  0  0
 15 34  1  0  0  0  0
 15 35  1  0  0  0  0
M  END
> <PUBCHEM_COMPOUND_CID>
21432362

> <PUBCHEM_COMPOUND_CANONICALIZED>
1

> <PUBCHEM_CACTVS_COMPLEXITY>
280

> <PUBCHEM_CACTVS_HBOND_ACCEPTOR>
3

> <PUBCHEM_CACTVS_HBOND_DONOR>
1

> <PUBCHEM_CACTVS_ROTATABLE_BOND>
8

> <PUBCHEM_CACTVS_SUBSKEYS>
AAADceBwMAAAAAAAAAAAAAAAAAAAAAAAAAAAAAAAAAAAAAAAAAAAGgAACAAACASAgAACCAAAAgBIEICQCAgAAAAAAAAAAAEAAAAAABIAAAAAQAAAAAAAAAEIiICAAAAAAAAAAAAAAAAAAAAAAAAAAAAAAA==

> <PUBCHEM_IUPAC_OPENEYE_NAME>
12-oxotridec-3-ynoic acid

> <PUBCHEM_IUPAC_CAS_NAME>
12-oxo-3-tridecynoic acid

> <PUBCHEM_IUPAC_NAME_MARKUP>
12-oxotridec-3-ynoic acid

> <PUBCHEM_IUPAC_NAME>
12-oxotridec-3-ynoic acid

> <PUBCHEM_IUPAC_SYSTEMATIC_NAME>
12-oxidanylidenetridec-3-ynoic acid

> <PUBCHEM_IUPAC_TRADITIONAL_NAME>
12-ketotridec-3-ynoic acid

> <PUBCHEM_IUPAC_INCHI>
InChI=1S/C13H20O3/c1-12(14)10-8-6-4-2-3-5-7-9-11-13(15)16/h2-6,8,10-11H2,1H3,(H,15,16)

> <PUBCHEM_IUPAC_INCHIKEY>
CPHCOQRZKRNEEU-UHFFFAOYSA-N

> <PUBCHEM_XLOGP3_AA>
2.6

> <PUBCHEM_EXACT_MASS>
224.14124450

> <PUBCHEM_MOLECULAR_FORMULA>
C13H20O3

> <PUBCHEM_MOLECULAR_WEIGHT>
224.30

> <PUBCHEM_OPENEYE_CAN_SMILES>
CC(=O)CCCCCCCC#CCC(=O)O

> <PUBCHEM_OPENEYE_ISO_SMILES>
CC(=O)CCCCCCCC#CCC(=O)O

> <PUBCHEM_CACTVS_TPSA>
54.4

> <PUBCHEM_MONOISOTOPIC_WEIGHT>
224.14124450

> <PUBCHEM_TOTAL_CHARGE>
0

> <PUBCHEM_HEAVY_ATOM_COUNT>
16

> <PUBCHEM_ATOM_DEF_STEREO_COUNT>
0

> <PUBCHEM_ATOM_UDEF_STEREO_COUNT>
0

> <PUBCHEM_BOND_DEF_STEREO_COUNT>
0

> <PUBCHEM_BOND_UDEF_STEREO_COUNT>
0

> <PUBCHEM_ISOTOPIC_ATOM_COUNT>
0

> <PUBCHEM_COMPONENT_COUNT>
1

> <PUBCHEM_CACTVS_TAUTO_COUNT>
-1

> <PUBCHEM_COORDINATE_TYPE>
1
5
255

$$$$
