 
  -OEChem-10192104042D

 64 67  0     1  0  0  0  0  0999 V2000
    8.4497   -0.6296    0.0000 O   0  0  0  0  0  0  0  0  0  0  0  0
   10.1818   -0.6296    0.0000 O   0  0  0  0  0  0  0  0  0  0  0  0
    5.8517   -1.1296    0.0000 O   0  0  0  0  0  0  0  0  0  0  0  0
    4.8811    0.3649    0.0000 O   0  0  0  0  0  0  0  0  0  0  0  0
    9.3158    0.8704    0.0000 O   0  0  0  0  0  0  0  0  0  0  0  0
    6.7177   -2.6296    0.0000 O   0  0  0  0  0  0  0  0  0  0  0  0
    8.4497   -3.6296    0.0000 O   0  0  0  0  0  0  0  0  0  0  0  0
   10.1818   -2.6296    0.0000 O   0  0  0  0  0  0  0  0  0  0  0  0
    2.6598   -0.9624    0.0000 O   0  0  0  0  0  0  0  0  0  0  0  0
    3.8642   -2.0145    0.0000 O   0  0  0  0  0  0  0  0  0  0  0  0
   11.0638    3.9396    0.0000 O   0  0  0  0  0  0  0  0  0  0  0  0
    2.5369    1.2068    0.0000 O   0  0  0  0  0  0  0  0  0  0  0  0
    9.2940    3.9018    0.0000 O   0  0  0  0  0  0  0  0  0  0  0  0
    7.5837   -1.1296    0.0000 C   0  0  1  0  0  0  0  0  0  0  0  0
    7.5837   -2.1296    0.0000 C   0  0  2  0  0  0  0  0  0  0  0  0
    8.4497   -2.6296    0.0000 C   0  0  1  0  0  0  0  0  0  0  0  0
    9.3158   -2.1296    0.0000 C   0  0  2  0  0  0  0  0  0  0  0  0
    9.3158   -1.1296    0.0000 C   0  0  1  0  0  0  0  0  0  0  0  0
   11.0478    1.8704    0.0000 C   0  0  2  0  0  0  0  0  0  0  0  0
   11.0478    0.8704    0.0000 C   0  0  2  0  0  0  0  0  0  0  0  0
    3.4030   -0.2932    0.0000 C   0  0  1  0  0  0  0  0  0  0  0  0
   10.1818    0.3704    0.0000 C   0  0  2  0  0  0  0  0  0  0  0  0
    4.0721   -1.0364    0.0000 C   0  0  2  0  0  0  0  0  0  0  0  0
    4.9856   -0.6296    0.0000 C   0  0  2  0  0  0  0  0  0  0  0  0
    6.7177   -0.6296    0.0000 C   0  0  0  0  0  0  0  0  0  0  0  0
   11.9578    2.3772    0.0000 C   0  0  0  0  0  0  0  0  0  0  0  0
    3.9030    0.5728    0.0000 C   0  0  0  0  0  0  0  0  0  0  0  0
   10.1818    2.3704    0.0000 C   0  0  0  0  0  0  0  0  0  0  0  0
    2.5369    0.2068    0.0000 C   0  0  0  0  0  0  0  0  0  0  0  0
   11.9658    3.4188    0.0000 C   0  0  0  0  0  0  0  0  0  0  0  0
   11.9138    0.3704    0.0000 C   0  0  0  0  0  0  0  0  0  0  0  0
    9.3158    1.8704    0.0000 C   0  0  0  0  0  0  0  0  0  0  0  0
   10.1657    3.4119    0.0000 C   0  0  0  0  0  0  0  0  0  0  0  0
   12.7799    0.8704    0.0000 C   0  0  0  0  0  0  0  0  0  0  0  0
    7.5837   -0.5096    0.0000 H   0  0  0  0  0  0  0  0  0  0  0  0
    7.0468   -1.8196    0.0000 H   0  0  0  0  0  0  0  0  0  0  0  0
    7.9128   -2.9396    0.0000 H   0  0  0  0  0  0  0  0  0  0  0  0
    9.3158   -2.7496    0.0000 H   0  0  0  0  0  0  0  0  0  0  0  0
    9.8527   -1.4396    0.0000 H   0  0  0  0  0  0  0  0  0  0  0  0
   11.7806    1.4397    0.0000 H   0  0  0  0  0  0  0  0  0  0  0  0
   11.5848    1.1804    0.0000 H   0  0  0  0  0  0  0  0  0  0  0  0
    9.6448    0.0604    0.0000 H   0  0  0  0  0  0  0  0  0  0  0  0
    3.4732   -1.1968    0.0000 H   0  0  0  0  0  0  0  0  0  0  0  0
    4.9532   -1.2488    0.0000 H   0  0  0  0  0  0  0  0  0  0  0  0
    7.1162   -0.1547    0.0000 H   0  0  0  0  0  0  0  0  0  0  0  0
    6.3192   -0.1547    0.0000 H   0  0  0  0  0  0  0  0  0  0  0  0
   12.1624    1.7919    0.0000 H   0  0  0  0  0  0  0  0  0  0  0  0
   12.5695    2.4786    0.0000 H   0  0  0  0  0  0  0  0  0  0  0  0
    4.0946    1.1625    0.0000 H   0  0  0  0  0  0  0  0  0  0  0  0
    3.3366    0.8250    0.0000 H   0  0  0  0  0  0  0  0  0  0  0  0
    1.9264    0.3144    0.0000 H   0  0  0  0  0  0  0  0  0  0  0  0
    2.3249   -0.3758    0.0000 H   0  0  0  0  0  0  0  0  0  0  0  0
   12.5759    3.3080    0.0000 H   0  0  0  0  0  0  0  0  0  0  0  0
   12.1794    4.0009    0.0000 H   0  0  0  0  0  0  0  0  0  0  0  0
   11.9138   -0.2496    0.0000 H   0  0  0  0  0  0  0  0  0  0  0  0
    8.7788    2.1804    0.0000 H   0  0  0  0  0  0  0  0  0  0  0  0
    6.7177   -3.2496    0.0000 H   0  0  0  0  0  0  0  0  0  0  0  0
    7.9128   -3.9396    0.0000 H   0  0  0  0  0  0  0  0  0  0  0  0
   10.1818   -3.2496    0.0000 H   0  0  0  0  0  0  0  0  0  0  0  0
    2.0702   -0.7708    0.0000 H   0  0  0  0  0  0  0  0  0  0  0  0
    3.2745   -2.2061    0.0000 H   0  0  0  0  0  0  0  0  0  0  0  0
   13.3168    0.5604    0.0000 H   0  0  0  0  0  0  0  0  0  0  0  0
   12.7799    1.4904    0.0000 H   0  0  0  0  0  0  0  0  0  0  0  0
    2.0000    1.5168    0.0000 H   0  0  0  0  0  0  0  0  0  0  0  0
  1 14  1  0  0  0  0
  1 18  1  0  0  0  0
 18  2  1  1  0  0  0
 22  2  1  6  0  0  0
 24  3  1  1  0  0  0
  3 25  1  0  0  0  0
  4 24  1  0  0  0  0
  4 27  1  0  0  0  0
  5 22  1  0  0  0  0
  5 32  1  0  0  0  0
 15  6  1  6  0  0  0
  6 57  1  0  0  0  0
 16  7  1  1  0  0  0
  7 58  1  0  0  0  0
 17  8  1  6  0  0  0
  8 59  1  0  0  0  0
 21  9  1  6  0  0  0
  9 60  1  0  0  0  0
 23 10  1  6  0  0  0
 10 61  1  0  0  0  0
 11 30  1  0  0  0  0
 11 33  1  0  0  0  0
 12 29  1  0  0  0  0
 12 64  1  0  0  0  0
 13 33  2  0  0  0  0
 14 15  1  0  0  0  0
 14 25  1  1  0  0  0
 14 35  1  0  0  0  0
 15 16  1  0  0  0  0
 15 36  1  0  0  0  0
 16 17  1  0  0  0  0
 16 37  1  0  0  0  0
 17 18  1  0  0  0  0
 17 38  1  0  0  0  0
 18 39  1  0  0  0  0
 19 20  1  0  0  0  0
 19 26  1  0  0  0  0
 19 28  1  0  0  0  0
 19 40  1  6  0  0  0
 20 22  1  0  0  0  0
 20 31  1  1  0  0  0
 20 41  1  0  0  0  0
 21 23  1  0  0  0  0
 21 27  1  0  0  0  0
 21 29  1  0  0  0  0
 22 42  1  0  0  0  0
 23 24  1  0  0  0  0
 23 43  1  0  0  0  0
 24 44  1  0  0  0  0
 25 45  1  0  0  0  0
 25 46  1  0  0  0  0
 26 30  1  0  0  0  0
 26 47  1  0  0  0  0
 26 48  1  0  0  0  0
 27 49  1  0  0  0  0
 27 50  1  0  0  0  0
 28 32  2  0  0  0  0
 28 33  1  0  0  0  0
 29 51  1  0  0  0  0
 29 52  1  0  0  0  0
 30 53  1  0  0  0  0
 30 54  1  0  0  0  0
 31 34  2  0  0  0  0
 31 55  1  0  0  0  0
 32 56  1  0  0  0  0
 34 62  1  0  0  0  0
 34 63  1  0  0  0  0
M  END
> <PUBCHEM_COMPOUND_CID>
10696407

> <PUBCHEM_COMPOUND_CANONICALIZED>
1

> <PUBCHEM_CACTVS_COMPLEXITY>
789

> <PUBCHEM_CACTVS_HBOND_ACCEPTOR>
13

> <PUBCHEM_CACTVS_HBOND_DONOR>
6

> <PUBCHEM_CACTVS_ROTATABLE_BOND>
7

> <PUBCHEM_CACTVS_SUBSKEYS>
AAADceB4PAAAAAAAAAAAAAAAAAAAASAAAAAkSIAAAAAAAACAAAAAGgAACAAADVSwgAMACAAABgCIAiDSCAAACAAgIAAIAAEAAEgRFBIAIQAiQAAFwAAHIIHIZAwOgAAAAAAAAAAAAAAAAAAAAAAAAAAAAA==

> <PUBCHEM_IUPAC_OPENEYE_NAME>
(3S,4R,4aS)-3-[(2S,3R,4S,5S,6R)-6-[[(2R,3R,4R)-3,4-dihydroxy-4-(hydroxymethyl)tetrahydrofuran-2-yl]oxymethyl]-3,4,5-trihydroxy-tetrahydropyran-2-yl]oxy-4-vinyl-4,4a,5,6-tetrahydro-3H-pyrano[3,4-c]pyran-8-one

> <PUBCHEM_IUPAC_CAS_NAME>
(3S,4R,4aS)-3-[[(2S,3R,4S,5S,6R)-6-[[(2R,3R,4R)-3,4-dihydroxy-4-(hydroxymethyl)-2-oxolanyl]oxymethyl]-3,4,5-trihydroxy-2-oxanyl]oxy]-4-ethenyl-4,4a,5,6-tetrahydro-3H-pyrano[3,4-c]pyran-8-one

> <PUBCHEM_IUPAC_NAME_MARKUP>
(3<I>S</I>,4<I>R</I>,4<I>a</I><I>S</I>)-3-[(2<I>S</I>,3<I>R</I>,4<I>S</I>,5<I>S</I>,6<I>R</I>)-6-[[(2<I>R</I>,3<I>R</I>,4<I>R</I>)-3,4-dihydroxy-4-(hydroxymethyl)oxolan-2-yl]oxymethyl]-3,4,5-trihydroxyoxan-2-yl]oxy-4-ethenyl-4,4<I>a</I>,5,6-tetrahydro-3<I>H</I>-pyrano[3,4-c]pyran-8-one

> <PUBCHEM_IUPAC_NAME>
(3S,4R,4aS)-3-[(2S,3R,4S,5S,6R)-6-[[(2R,3R,4R)-3,4-dihydroxy-4-(hydroxymethyl)oxolan-2-yl]oxymethyl]-3,4,5-trihydroxyoxan-2-yl]oxy-4-ethenyl-4,4a,5,6-tetrahydro-3H-pyrano[3,4-c]pyran-8-one

> <PUBCHEM_IUPAC_SYSTEMATIC_NAME>
(3S,4R,4aS)-4-ethenyl-3-[(2S,3R,4S,5S,6R)-6-[[(2R,3R,4R)-4-(hydroxymethyl)-3,4-bis(oxidanyl)oxolan-2-yl]oxymethyl]-3,4,5-tris(oxidanyl)oxan-2-yl]oxy-4,4a,5,6-tetrahydro-3H-pyrano[3,4-c]pyran-8-one

> <PUBCHEM_IUPAC_TRADITIONAL_NAME>
(3S,4R,4aS)-3-[(2S,3R,4S,5S,6R)-6-[[(2R,3R,4R)-3,4-dihydroxy-4-methylol-tetrahydrofuran-2-yl]oxymethyl]-3,4,5-trihydroxy-tetrahydropyran-2-yl]oxy-4-vinyl-4,4a,5,6-tetrahydro-3H-pyrano[3,4-c]pyran-8-one

> <PUBCHEM_IUPAC_INCHI>
InChI=1S/C21H30O13/c1-2-9-10-3-4-29-17(27)11(10)5-30-18(9)34-19-15(25)14(24)13(23)12(33-19)6-31-20-16(26)21(28,7-22)8-32-20/h2,5,9-10,12-16,18-20,22-26,28H,1,3-4,6-8H2/t9-,10+,12-,13-,14+,15-,16+,18+,19+,20-,21-/m1/s1

> <PUBCHEM_IUPAC_INCHIKEY>
JNPXCTROEJQHKD-APAPHXOESA-N

> <PUBCHEM_XLOGP3_AA>
-2.7

> <PUBCHEM_EXACT_MASS>
490.16864101

> <PUBCHEM_MOLECULAR_FORMULA>
C21H30O13

> <PUBCHEM_MOLECULAR_WEIGHT>
490.5

> <PUBCHEM_OPENEYE_CAN_SMILES>
C=CC1C2CCOC(=O)C2=COC1OC3C(C(C(C(O3)COC4C(C(CO4)(CO)O)O)O)O)O

> <PUBCHEM_OPENEYE_ISO_SMILES>
C=C[C@@H]1[C@@H]2CCOC(=O)C2=CO[C@H]1O[C@H]3[C@@H]([C@H]([C@@H]([C@H](O3)CO[C@H]4[C@@H]([C@](CO4)(CO)O)O)O)O)O

> <PUBCHEM_CACTVS_TPSA>
194

> <PUBCHEM_MONOISOTOPIC_WEIGHT>
490.16864101

> <PUBCHEM_TOTAL_CHARGE>
0

> <PUBCHEM_HEAVY_ATOM_COUNT>
34

> <PUBCHEM_ATOM_DEF_STEREO_COUNT>
11

> <PUBCHEM_ATOM_UDEF_STEREO_COUNT>
0

> <PUBCHEM_BOND_DEF_STEREO_COUNT>
0

> <PUBCHEM_BOND_UDEF_STEREO_COUNT>
0

> <PUBCHEM_ISOTOPIC_ATOM_COUNT>
0

> <PUBCHEM_COMPONENT_COUNT>
1

> <PUBCHEM_CACTVS_TAUTO_COUNT>
-1

> <PUBCHEM_COORDINATE_TYPE>
1
5
255

> <PUBCHEM_BONDANNOTATIONS>
23  10  6
14  25  5
19  40  6
18  2  5
22  2  6
20  31  5
24  3  5
15  6  6
16  7  5
17  8  6
21  9  6

$$$$
