 
  -OEChem-10192104192D

 88 92  0     1  0  0  0  0  0999 V2000
    6.3301   -2.0000    0.0000 O   0  0  0  0  0  0  0  0  0  0  0  0
    4.5981    1.0000    0.0000 O   0  0  0  0  0  0  0  0  0  0  0  0
    8.9282   -0.5000    0.0000 O   0  0  0  0  0  0  0  0  0  0  0  0
    6.3301    2.0000    0.0000 O   0  0  0  0  0  0  0  0  0  0  0  0
    8.9282   -2.5000    0.0000 O   0  0  0  0  0  0  0  0  0  0  0  0
    4.5981   -2.0000    0.0000 O   0  0  0  0  0  0  0  0  0  0  0  0
    5.4641    2.5000    0.0000 O   0  0  0  0  0  0  0  0  0  0  0  0
    9.7942   -2.0000    0.0000 O   0  0  0  0  0  0  0  0  0  0  0  0
    8.0622    2.0000    0.0000 O   0  0  0  0  0  0  0  0  0  0  0  0
    8.0622   -4.0000    0.0000 O   0  0  0  0  0  0  0  0  0  0  0  0
    6.3301   -1.0000    0.0000 C   0  0  0  0  0  0  0  0  0  0  0  0
    5.4641   -0.5000    0.0000 C   0  0  0  0  0  0  0  0  0  0  0  0
    7.1962   -0.5000    0.0000 C   0  0  0  0  0  0  0  0  0  0  0  0
    5.4641    0.5000    0.0000 C   0  0  2  0  0  0  0  0  0  0  0  0
    8.0622   -1.0000    0.0000 C   0  0  1  0  0  0  0  0  0  0  0  0
    6.3301    1.0000    0.0000 C   0  0  0  0  0  0  0  0  0  0  0  0
    8.0622   -2.0000    0.0000 C   0  0  0  0  0  0  0  0  0  0  0  0
    5.4641   -2.5000    0.0000 C   0  0  0  0  0  0  0  0  0  0  0  0
    4.5981    2.0000    0.0000 C   0  0  0  0  0  0  0  0  0  0  0  0
    9.7942   -1.0000    0.0000 C   0  0  0  0  0  0  0  0  0  0  0  0
    5.4641   -3.5000    0.0000 C   0  0  0  0  0  0  0  0  0  0  0  0
    3.7320    2.5000    0.0000 C   0  0  0  0  0  0  0  0  0  0  0  0
    7.1962    2.5000    0.0000 C   0  0  0  0  0  0  0  0  0  0  0  0
    8.9282   -3.5000    0.0000 C   0  0  0  0  0  0  0  0  0  0  0  0
   10.6603   -0.5000    0.0000 C   0  0  0  0  0  0  0  0  0  0  0  0
    4.5981   -4.0000    0.0000 C   0  0  0  0  0  0  0  0  0  0  0  0
    6.3301   -4.0000    0.0000 C   0  0  0  0  0  0  0  0  0  0  0  0
    7.1962    3.5000    0.0000 C   0  0  0  0  0  0  0  0  0  0  0  0
    9.7942   -4.0000    0.0000 C   0  0  0  0  0  0  0  0  0  0  0  0
    2.8660    2.0000    0.0000 C   0  0  0  0  0  0  0  0  0  0  0  0
    3.7320    3.5000    0.0000 C   0  0  0  0  0  0  0  0  0  0  0  0
   11.5263   -1.0000    0.0000 C   0  0  0  0  0  0  0  0  0  0  0  0
   10.6603    0.5000    0.0000 C   0  0  0  0  0  0  0  0  0  0  0  0
    4.5981   -5.0000    0.0000 C   0  0  0  0  0  0  0  0  0  0  0  0
    6.3301   -5.0000    0.0000 C   0  0  0  0  0  0  0  0  0  0  0  0
    5.4641   -5.5000    0.0000 C   0  0  0  0  0  0  0  0  0  0  0  0
    2.0000    2.5000    0.0000 C   0  0  0  0  0  0  0  0  0  0  0  0
    2.8660    4.0000    0.0000 C   0  0  0  0  0  0  0  0  0  0  0  0
   12.3923   -0.5000    0.0000 C   0  0  0  0  0  0  0  0  0  0  0  0
   11.5263    1.0000    0.0000 C   0  0  0  0  0  0  0  0  0  0  0  0
    6.3301    4.0000    0.0000 C   0  0  0  0  0  0  0  0  0  0  0  0
    8.0622    4.0000    0.0000 C   0  0  0  0  0  0  0  0  0  0  0  0
   10.6603   -3.5000    0.0000 C   0  0  0  0  0  0  0  0  0  0  0  0
    9.7942   -5.0000    0.0000 C   0  0  0  0  0  0  0  0  0  0  0  0
    2.0000    3.5000    0.0000 C   0  0  0  0  0  0  0  0  0  0  0  0
   12.3923    0.5000    0.0000 C   0  0  0  0  0  0  0  0  0  0  0  0
    6.3301    5.0000    0.0000 C   0  0  0  0  0  0  0  0  0  0  0  0
    8.0622    5.0000    0.0000 C   0  0  0  0  0  0  0  0  0  0  0  0
   11.5263   -4.0000    0.0000 C   0  0  0  0  0  0  0  0  0  0  0  0
   10.6603   -5.5000    0.0000 C   0  0  0  0  0  0  0  0  0  0  0  0
    7.1962    5.5000    0.0000 C   0  0  0  0  0  0  0  0  0  0  0  0
   11.5263   -5.0000    0.0000 C   0  0  0  0  0  0  0  0  0  0  0  0
    6.8671   -1.3100    0.0000 H   0  0  0  0  0  0  0  0  0  0  0  0
    4.8535   -0.3923    0.0000 H   0  0  0  0  0  0  0  0  0  0  0  0
    5.2520   -1.0826    0.0000 H   0  0  0  0  0  0  0  0  0  0  0  0
    7.5947   -0.0251    0.0000 H   0  0  0  0  0  0  0  0  0  0  0  0
    6.7976   -0.0251    0.0000 H   0  0  0  0  0  0  0  0  0  0  0  0
    5.4641    1.1200    0.0000 H   0  0  0  0  0  0  0  0  0  0  0  0
    8.0622   -0.3800    0.0000 H   0  0  0  0  0  0  0  0  0  0  0  0
    6.5422    0.4174    0.0000 H   0  0  0  0  0  0  0  0  0  0  0  0
    6.9407    1.1077    0.0000 H   0  0  0  0  0  0  0  0  0  0  0  0
    7.4516   -1.8923    0.0000 H   0  0  0  0  0  0  0  0  0  0  0  0
    7.8501   -2.5826    0.0000 H   0  0  0  0  0  0  0  0  0  0  0  0
    4.0611   -3.6900    0.0000 H   0  0  0  0  0  0  0  0  0  0  0  0
    6.8671   -3.6900    0.0000 H   0  0  0  0  0  0  0  0  0  0  0  0
    2.8660    1.3800    0.0000 H   0  0  0  0  0  0  0  0  0  0  0  0
    4.2690    3.8100    0.0000 H   0  0  0  0  0  0  0  0  0  0  0  0
   11.5263   -1.6200    0.0000 H   0  0  0  0  0  0  0  0  0  0  0  0
   10.1233    0.8100    0.0000 H   0  0  0  0  0  0  0  0  0  0  0  0
    4.0611   -5.3100    0.0000 H   0  0  0  0  0  0  0  0  0  0  0  0
    6.8671   -5.3100    0.0000 H   0  0  0  0  0  0  0  0  0  0  0  0
    5.4641   -6.1200    0.0000 H   0  0  0  0  0  0  0  0  0  0  0  0
    1.4631    2.1900    0.0000 H   0  0  0  0  0  0  0  0  0  0  0  0
    2.8660    4.6200    0.0000 H   0  0  0  0  0  0  0  0  0  0  0  0
   12.9292   -0.8100    0.0000 H   0  0  0  0  0  0  0  0  0  0  0  0
   11.5263    1.6200    0.0000 H   0  0  0  0  0  0  0  0  0  0  0  0
    5.7932    3.6900    0.0000 H   0  0  0  0  0  0  0  0  0  0  0  0
    8.5991    3.6900    0.0000 H   0  0  0  0  0  0  0  0  0  0  0  0
   10.6603   -2.8800    0.0000 H   0  0  0  0  0  0  0  0  0  0  0  0
    9.2573   -5.3100    0.0000 H   0  0  0  0  0  0  0  0  0  0  0  0
    1.4631    3.8100    0.0000 H   0  0  0  0  0  0  0  0  0  0  0  0
   12.9292    0.8100    0.0000 H   0  0  0  0  0  0  0  0  0  0  0  0
    5.7932    5.3100    0.0000 H   0  0  0  0  0  0  0  0  0  0  0  0
    8.5991    5.3100    0.0000 H   0  0  0  0  0  0  0  0  0  0  0  0
   12.0632   -3.6900    0.0000 H   0  0  0  0  0  0  0  0  0  0  0  0
   10.6603   -6.1200    0.0000 H   0  0  0  0  0  0  0  0  0  0  0  0
    7.1962    6.1200    0.0000 H   0  0  0  0  0  0  0  0  0  0  0  0
   12.0632   -5.3100    0.0000 H   0  0  0  0  0  0  0  0  0  0  0  0
  1 11  1  0  0  0  0
  1 18  1  0  0  0  0
 14  2  1  1  0  0  0
  2 19  1  0  0  0  0
 15  3  1  6  0  0  0
  3 20  1  0  0  0  0
  4 16  1  0  0  0  0
  4 23  1  0  0  0  0
  5 17  1  0  0  0  0
  5 24  1  0  0  0  0
  6 18  2  0  0  0  0
  7 19  2  0  0  0  0
  8 20  2  0  0  0  0
  9 23  2  0  0  0  0
 10 24  2  0  0  0  0
 11 12  1  0  0  0  0
 11 13  1  0  0  0  0
 11 53  1  0  0  0  0
 12 14  1  0  0  0  0
 12 54  1  0  0  0  0
 12 55  1  0  0  0  0
 13 15  1  0  0  0  0
 13 56  1  0  0  0  0
 13 57  1  0  0  0  0
 14 16  1  0  0  0  0
 14 58  1  0  0  0  0
 15 17  1  0  0  0  0
 15 59  1  0  0  0  0
 16 60  1  0  0  0  0
 16 61  1  0  0  0  0
 17 62  1  0  0  0  0
 17 63  1  0  0  0  0
 18 21  1  0  0  0  0
 19 22  1  0  0  0  0
 20 25  1  0  0  0  0
 21 26  2  0  0  0  0
 21 27  1  0  0  0  0
 22 30  2  0  0  0  0
 22 31  1  0  0  0  0
 23 28  1  0  0  0  0
 24 29  1  0  0  0  0
 25 32  2  0  0  0  0
 25 33  1  0  0  0  0
 26 34  1  0  0  0  0
 26 64  1  0  0  0  0
 27 35  2  0  0  0  0
 27 65  1  0  0  0  0
 28 41  2  0  0  0  0
 28 42  1  0  0  0  0
 29 43  2  0  0  0  0
 29 44  1  0  0  0  0
 30 37  1  0  0  0  0
 30 66  1  0  0  0  0
 31 38  2  0  0  0  0
 31 67  1  0  0  0  0
 32 39  1  0  0  0  0
 32 68  1  0  0  0  0
 33 40  2  0  0  0  0
 33 69  1  0  0  0  0
 34 36  2  0  0  0  0
 34 70  1  0  0  0  0
 35 36  1  0  0  0  0
 35 71  1  0  0  0  0
 36 72  1  0  0  0  0
 37 45  2  0  0  0  0
 37 73  1  0  0  0  0
 38 45  1  0  0  0  0
 38 74  1  0  0  0  0
 39 46  2  0  0  0  0
 39 75  1  0  0  0  0
 40 46  1  0  0  0  0
 40 76  1  0  0  0  0
 41 47  1  0  0  0  0
 41 77  1  0  0  0  0
 42 48  2  0  0  0  0
 42 78  1  0  0  0  0
 43 49  1  0  0  0  0
 43 79  1  0  0  0  0
 44 50  2  0  0  0  0
 44 80  1  0  0  0  0
 45 81  1  0  0  0  0
 46 82  1  0  0  0  0
 47 51  2  0  0  0  0
 47 83  1  0  0  0  0
 48 51  1  0  0  0  0
 48 84  1  0  0  0  0
 49 52  2  0  0  0  0
 49 85  1  0  0  0  0
 50 52  1  0  0  0  0
 50 86  1  0  0  0  0
 51 87  1  0  0  0  0
 52 88  1  0  0  0  0
M  END
> <PUBCHEM_COMPOUND_CID>
10794827

> <PUBCHEM_COMPOUND_CANONICALIZED>
1

> <PUBCHEM_CACTVS_COMPLEXITY>
1050

> <PUBCHEM_CACTVS_HBOND_ACCEPTOR>
10

> <PUBCHEM_CACTVS_HBOND_DONOR>
0

> <PUBCHEM_CACTVS_ROTATABLE_BOND>
21

> <PUBCHEM_CACTVS_SUBSKEYS>
AAADcfB8PAAAAAAAAAAAAAAAAAAAAAAAAAAwYMGDAAAAAAABVAAAGgAAAAAADBSgmAIwCIAABACIAiDSCAACAAAkAAAIiAEACMgJJjKANRiCMQAlwAEKqYfI6CyOAAAAAAAAAAAAAAAAAAAAAAAAAAAAAA==

> <PUBCHEM_IUPAC_OPENEYE_NAME>
[(2R,6S)-2,4,6,7-tetrabenzoyloxyheptyl] benzoate

> <PUBCHEM_IUPAC_CAS_NAME>
benzoic acid [(2R,6S)-2,4,6,7-tetrabenzoyloxyheptyl] ester

> <PUBCHEM_IUPAC_NAME_MARKUP>
[(2<I>R</I>,6<I>S</I>)-2,4,6,7-tetrabenzoyloxyheptyl] benzoate

> <PUBCHEM_IUPAC_NAME>
[(2R,6S)-2,4,6,7-tetrabenzoyloxyheptyl] benzoate

> <PUBCHEM_IUPAC_SYSTEMATIC_NAME>
[(2R,6S)-2,4,6,7-tetrakis(phenylcarbonyloxy)heptyl] benzoate

> <PUBCHEM_IUPAC_TRADITIONAL_NAME>
benzoic acid [(2R,6S)-2,4,6,7-tetrabenzoyloxyheptyl] ester

> <PUBCHEM_IUPAC_INCHI>
InChI=1S/C42H36O10/c43-38(30-16-6-1-7-17-30)48-28-36(51-41(46)33-22-12-4-13-23-33)26-35(50-40(45)32-20-10-3-11-21-32)27-37(52-42(47)34-24-14-5-15-25-34)29-49-39(44)31-18-8-2-9-19-31/h1-25,35-37H,26-29H2/t35?,36-,37+

> <PUBCHEM_IUPAC_INCHIKEY>
QVJMBDURMWJCQY-SCGMLGLWSA-N

> <PUBCHEM_XLOGP3_AA>
8.9

> <PUBCHEM_EXACT_MASS>
700.23084734

> <PUBCHEM_MOLECULAR_FORMULA>
C42H36O10

> <PUBCHEM_MOLECULAR_WEIGHT>
700.7

> <PUBCHEM_OPENEYE_CAN_SMILES>
C1=CC=C(C=C1)C(=O)OCC(CC(CC(COC(=O)C2=CC=CC=C2)OC(=O)C3=CC=CC=C3)OC(=O)C4=CC=CC=C4)OC(=O)C5=CC=CC=C5

> <PUBCHEM_OPENEYE_ISO_SMILES>
C1=CC=C(C=C1)C(=O)OC[C@@H](CC(C[C@@H](COC(=O)C2=CC=CC=C2)OC(=O)C3=CC=CC=C3)OC(=O)C4=CC=CC=C4)OC(=O)C5=CC=CC=C5

> <PUBCHEM_CACTVS_TPSA>
132

> <PUBCHEM_MONOISOTOPIC_WEIGHT>
700.23084734

> <PUBCHEM_TOTAL_CHARGE>
0

> <PUBCHEM_HEAVY_ATOM_COUNT>
52

> <PUBCHEM_ATOM_DEF_STEREO_COUNT>
2

> <PUBCHEM_ATOM_UDEF_STEREO_COUNT>
0

> <PUBCHEM_BOND_DEF_STEREO_COUNT>
0

> <PUBCHEM_BOND_UDEF_STEREO_COUNT>
0

> <PUBCHEM_ISOTOPIC_ATOM_COUNT>
0

> <PUBCHEM_COMPONENT_COUNT>
1

> <PUBCHEM_CACTVS_TAUTO_COUNT>
-1

> <PUBCHEM_COORDINATE_TYPE>
1
5
255

> <PUBCHEM_BONDANNOTATIONS>
14  2  5
21  26  8
21  27  8
22  30  8
22  31  8
25  32  8
25  33  8
26  34  8
27  35  8
28  41  8
28  42  8
29  43  8
29  44  8
15  3  6
30  37  8
31  38  8
32  39  8
33  40  8
34  36  8
35  36  8
37  45  8
38  45  8
39  46  8
40  46  8
41  47  8
42  48  8
43  49  8
44  50  8
47  51  8
48  51  8
49  52  8
50  52  8

$$$$
