 
  -OEChem-10192103392D

 64 64  0     1  0  0  0  0  0999 V2000
    5.4641   -1.5000    0.0000 O   0  0  0  0  0  0  0  0  0  0  0  0
    7.1962    1.5000    0.0000 O   0  0  0  0  0  0  0  0  0  0  0  0
    8.9282   -1.5000    0.0000 O   0  0  0  0  0  0  0  0  0  0  0  0
    5.4641    0.5000    0.0000 O   0  0  0  0  0  0  0  0  0  0  0  0
    7.1962   -2.5000    0.0000 O   0  0  0  0  0  0  0  0  0  0  0  0
    8.9282    0.5000    0.0000 O   0  0  0  0  0  0  0  0  0  0  0  0
    4.5981    0.0000    0.0000 O   0  0  0  0  0  0  0  0  0  0  0  0
    8.9282    1.5000    0.0000 O   0  0  0  0  0  0  0  0  0  0  0  0
    8.0622   -3.0000    0.0000 O   0  0  0  0  0  0  0  0  0  0  0  0
    6.3301   -1.0000    0.0000 C   0  0  1  0  0  0  0  0  0  0  0  0
    7.1962    0.5000    0.0000 C   0  0  1  0  0  0  0  0  0  0  0  0
    6.3301    0.0000    0.0000 C   0  0  0  0  0  0  0  0  0  0  0  0
    8.0622   -1.0000    0.0000 C   0  0  0  0  0  0  0  0  0  0  0  0
    7.1962   -1.5000    0.0000 C   0  0  2  0  0  0  0  0  0  0  0  0
    8.0622    0.0000    0.0000 C   0  0  2  0  0  0  0  0  0  0  0  0
    4.5981   -1.0000    0.0000 C   0  0  0  0  0  0  0  0  0  0  0  0
    8.0622    2.0000    0.0000 C   0  0  0  0  0  0  0  0  0  0  0  0
    3.7320   -1.5000    0.0000 C   0  0  3  0  0  0  0  0  0  0  0  0
    8.0622    3.0000    0.0000 C   0  0  3  0  0  0  0  0  0  0  0  0
    8.9282   -2.5000    0.0000 C   0  0  0  0  0  0  0  0  0  0  0  0
    2.8660   -1.0000    0.0000 C   0  0  0  0  0  0  0  0  0  0  0  0
    8.9282    3.5000    0.0000 C   0  0  0  0  0  0  0  0  0  0  0  0
    3.7320   -2.5000    0.0000 C   0  0  0  0  0  0  0  0  0  0  0  0
    7.1962    3.5000    0.0000 C   0  0  0  0  0  0  0  0  0  0  0  0
    9.7942   -3.0000    0.0000 C   0  0  0  0  0  0  0  0  0  0  0  0
    2.0000   -1.5000    0.0000 C   0  0  0  0  0  0  0  0  0  0  0  0
    8.9282    4.5000    0.0000 C   0  0  0  0  0  0  0  0  0  0  0  0
    9.7942   -4.0000    0.0000 C   0  0  0  0  0  0  0  0  0  0  0  0
   10.6603   -4.5000    0.0000 C   0  0  0  0  0  0  0  0  0  0  0  0
    8.9282   -4.5000    0.0000 C   0  0  0  0  0  0  0  0  0  0  0  0
    5.7932   -0.6900    0.0000 H   0  0  0  0  0  0  0  0  0  0  0  0
    6.6592    0.8100    0.0000 H   0  0  0  0  0  0  0  0  0  0  0  0
    6.3301    0.6200    0.0000 H   0  0  0  0  0  0  0  0  0  0  0  0
    8.0622   -1.6200    0.0000 H   0  0  0  0  0  0  0  0  0  0  0  0
    6.6592   -1.8100    0.0000 H   0  0  0  0  0  0  0  0  0  0  0  0
    8.0622    0.6200    0.0000 H   0  0  0  0  0  0  0  0  0  0  0  0
    5.4641    1.1200    0.0000 H   0  0  0  0  0  0  0  0  0  0  0  0
    6.6592   -2.8100    0.0000 H   0  0  0  0  0  0  0  0  0  0  0  0
    9.4651    0.1900    0.0000 H   0  0  0  0  0  0  0  0  0  0  0  0
    4.2690   -1.8100    0.0000 H   0  0  0  0  0  0  0  0  0  0  0  0
    8.0622    3.6200    0.0000 H   0  0  0  0  0  0  0  0  0  0  0  0
    3.2646   -0.5251    0.0000 H   0  0  0  0  0  0  0  0  0  0  0  0
    2.4675   -0.5251    0.0000 H   0  0  0  0  0  0  0  0  0  0  0  0
    9.1403    2.9174    0.0000 H   0  0  0  0  0  0  0  0  0  0  0  0
    9.5388    3.6077    0.0000 H   0  0  0  0  0  0  0  0  0  0  0  0
    3.1120   -2.5000    0.0000 H   0  0  0  0  0  0  0  0  0  0  0  0
    3.7320   -3.1200    0.0000 H   0  0  0  0  0  0  0  0  0  0  0  0
    4.3520   -2.5000    0.0000 H   0  0  0  0  0  0  0  0  0  0  0  0
    7.5062    4.0369    0.0000 H   0  0  0  0  0  0  0  0  0  0  0  0
    6.6592    3.8100    0.0000 H   0  0  0  0  0  0  0  0  0  0  0  0
    6.8862    2.9631    0.0000 H   0  0  0  0  0  0  0  0  0  0  0  0
   10.3312   -2.6900    0.0000 H   0  0  0  0  0  0  0  0  0  0  0  0
    1.6900   -0.9631    0.0000 H   0  0  0  0  0  0  0  0  0  0  0  0
    1.4631   -1.8100    0.0000 H   0  0  0  0  0  0  0  0  0  0  0  0
    2.3100   -2.0369    0.0000 H   0  0  0  0  0  0  0  0  0  0  0  0
    9.5482    4.5000    0.0000 H   0  0  0  0  0  0  0  0  0  0  0  0
    8.9282    5.1200    0.0000 H   0  0  0  0  0  0  0  0  0  0  0  0
    8.3082    4.5000    0.0000 H   0  0  0  0  0  0  0  0  0  0  0  0
   10.3503   -5.0369    0.0000 H   0  0  0  0  0  0  0  0  0  0  0  0
   11.1972   -4.8100    0.0000 H   0  0  0  0  0  0  0  0  0  0  0  0
   10.9703   -3.9631    0.0000 H   0  0  0  0  0  0  0  0  0  0  0  0
    8.6182   -3.9631    0.0000 H   0  0  0  0  0  0  0  0  0  0  0  0
    8.3913   -4.8100    0.0000 H   0  0  0  0  0  0  0  0  0  0  0  0
    9.2382   -5.0369    0.0000 H   0  0  0  0  0  0  0  0  0  0  0  0
 10  1  1  1  0  0  0
  1 16  1  0  0  0  0
 11  2  1  6  0  0  0
  2 17  1  0  0  0  0
  3 13  1  0  0  0  0
  3 20  1  0  0  0  0
  4 12  1  0  0  0  0
  4 37  1  0  0  0  0
 14  5  1  6  0  0  0
  5 38  1  0  0  0  0
 15  6  1  1  0  0  0
  6 39  1  0  0  0  0
  7 16  2  0  0  0  0
  8 17  2  0  0  0  0
  9 20  2  0  0  0  0
 10 12  1  0  0  0  0
 10 14  1  0  0  0  0
 10 31  1  0  0  0  0
 11 12  1  0  0  0  0
 11 15  1  0  0  0  0
 11 32  1  0  0  0  0
 12 33  1  0  0  0  0
 13 14  1  0  0  0  0
 13 15  1  0  0  0  0
 13 34  1  0  0  0  0
 14 35  1  0  0  0  0
 15 36  1  0  0  0  0
 16 18  1  0  0  0  0
 17 19  1  0  0  0  0
 18 21  1  0  0  0  0
 18 23  1  0  0  0  0
 18 40  1  0  0  0  0
 19 22  1  0  0  0  0
 19 24  1  0  0  0  0
 19 41  1  0  0  0  0
 20 25  1  0  0  0  0
 21 26  1  0  0  0  0
 21 42  1  0  0  0  0
 21 43  1  0  0  0  0
 22 27  1  0  0  0  0
 22 44  1  0  0  0  0
 22 45  1  0  0  0  0
 23 46  1  0  0  0  0
 23 47  1  0  0  0  0
 23 48  1  0  0  0  0
 24 49  1  0  0  0  0
 24 50  1  0  0  0  0
 24 51  1  0  0  0  0
 25 28  2  0  0  0  0
 25 52  1  0  0  0  0
 26 53  1  0  0  0  0
 26 54  1  0  0  0  0
 26 55  1  0  0  0  0
 27 56  1  0  0  0  0
 27 57  1  0  0  0  0
 27 58  1  0  0  0  0
 28 29  1  0  0  0  0
 28 30  1  0  0  0  0
 29 59  1  0  0  0  0
 29 60  1  0  0  0  0
 29 61  1  0  0  0  0
 30 62  1  0  0  0  0
 30 63  1  0  0  0  0
 30 64  1  0  0  0  0
M  END
> <PUBCHEM_COMPOUND_CID>
102056149

> <PUBCHEM_COMPOUND_CANONICALIZED>
1

> <PUBCHEM_CACTVS_COMPLEXITY>
602

> <PUBCHEM_CACTVS_HBOND_ACCEPTOR>
9

> <PUBCHEM_CACTVS_HBOND_DONOR>
3

> <PUBCHEM_CACTVS_ROTATABLE_BOND>
11

> <PUBCHEM_CACTVS_SUBSKEYS>
AAADcfB4PAAAAAAAAAAAAAAAAAAAAAAAAAAwAAAAAAAAAAAAAAAAGgAACAAADRSggAICCAAABgCIAiDSCAAAAAAAAAAACAEAAEABFBIAIQACUAAFAAADIQHAYAwIAAAAAAAAAAACAAAQAACAAAAAAAAAAA==

> <PUBCHEM_IUPAC_OPENEYE_NAME>
[(1S,3S,4R,6R)-2,4,6-trihydroxy-3-(2-methylbutanoyloxy)-5-(3-methylbut-2-enoyloxy)cyclohexyl] 2-methylbutanoate

> <PUBCHEM_IUPAC_CAS_NAME>
2-methylbutanoic acid [(1S,2R,4R,5S)-2,4,6-trihydroxy-3-(3-methyl-1-oxobut-2-enoxy)-5-(2-methyl-1-oxobutoxy)cyclohexyl] ester

> <PUBCHEM_IUPAC_NAME_MARKUP>
[(1<I>S</I>,3<I>S</I>,4<I>R</I>,6<I>R</I>)-2,4,6-trihydroxy-3-(2-methylbutanoyloxy)-5-(3-methylbut-2-enoyloxy)cyclohexyl] 2-methylbutanoate

> <PUBCHEM_IUPAC_NAME>
[(1S,3S,4R,6R)-2,4,6-trihydroxy-3-(2-methylbutanoyloxy)-5-(3-methylbut-2-enoyloxy)cyclohexyl] 2-methylbutanoate

> <PUBCHEM_IUPAC_SYSTEMATIC_NAME>
[(1S,3S,4R,6R)-3-(2-methylbutanoyloxy)-5-(3-methylbut-2-enoyloxy)-2,4,6-tris(oxidanyl)cyclohexyl] 2-methylbutanoate

> <PUBCHEM_IUPAC_TRADITIONAL_NAME>
2-methylbutyric acid [(1S,3S,4R,6R)-2,4,6-trihydroxy-3-(2-methylbutanoyloxy)-5-(3-methylbut-2-enoyloxy)cyclohexyl] ester

> <PUBCHEM_IUPAC_INCHI>
InChI=1S/C21H34O9/c1-7-11(5)20(26)29-18-14(23)17(28-13(22)9-10(3)4)15(24)19(16(18)25)30-21(27)12(6)8-2/h9,11-12,14-19,23-25H,7-8H2,1-6H3/t11?,12?,14-,15-,16?,17?,18+,19+/m0/s1

> <PUBCHEM_IUPAC_INCHIKEY>
MKPIHNXBGAZARR-VXSKBQGBSA-N

> <PUBCHEM_XLOGP3_AA>
2.3

> <PUBCHEM_EXACT_MASS>
430.22028266

> <PUBCHEM_MOLECULAR_FORMULA>
C21H34O9

> <PUBCHEM_MOLECULAR_WEIGHT>
430.5

> <PUBCHEM_OPENEYE_CAN_SMILES>
CCC(C)C(=O)OC1C(C(C(C(C1O)OC(=O)C(C)CC)O)OC(=O)C=C(C)C)O

> <PUBCHEM_OPENEYE_ISO_SMILES>
CCC(C)C(=O)O[C@@H]1[C@H](C([C@@H]([C@H](C1O)OC(=O)C(C)CC)O)OC(=O)C=C(C)C)O

> <PUBCHEM_CACTVS_TPSA>
140

> <PUBCHEM_MONOISOTOPIC_WEIGHT>
430.22028266

> <PUBCHEM_TOTAL_CHARGE>
0

> <PUBCHEM_HEAVY_ATOM_COUNT>
30

> <PUBCHEM_ATOM_DEF_STEREO_COUNT>
4

> <PUBCHEM_ATOM_UDEF_STEREO_COUNT>
2

> <PUBCHEM_BOND_DEF_STEREO_COUNT>
0

> <PUBCHEM_BOND_UDEF_STEREO_COUNT>
0

> <PUBCHEM_ISOTOPIC_ATOM_COUNT>
0

> <PUBCHEM_COMPONENT_COUNT>
1

> <PUBCHEM_CACTVS_TAUTO_COUNT>
-1

> <PUBCHEM_COORDINATE_TYPE>
1
5
255

> <PUBCHEM_BONDANNOTATIONS>
10  1  5
18  23  3
19  24  3
11  2  6
14  5  6
15  6  5

$$$$
