 
  -OEChem-10192103522D

 81 85  0     1  0  0  0  0  0999 V2000
    4.7950    0.5642    0.0000 O   0  0  0  0  0  0  0  0  0  0  0  0
    2.0000   -2.9882    0.0000 O   0  0  0  0  0  0  0  0  0  0  0  0
   10.6830    3.1238    0.0000 O   0  0  0  0  0  0  0  0  0  0  0  0
    9.1731    3.9724    0.0000 O   0  0  0  0  0  0  0  0  0  0  0  0
    6.5271   -1.4358    0.0000 C   0  0  2  0  0  0  0  0  0  0  0  0
    4.7510   -1.4427    0.0000 C   0  0  2  0  0  0  0  0  0  0  0  0
    5.6610   -0.9358    0.0000 C   0  0  1  0  0  0  0  0  0  0  0  0
    4.7430   -2.4843    0.0000 C   0  0  1  0  0  0  0  0  0  0  0  0
    7.3931   -0.9358    0.0000 C   0  0  1  0  0  0  0  0  0  0  0  0
    6.5431   -2.4774    0.0000 C   0  0  0  0  0  0  0  0  0  0  0  0
    5.6451   -3.0051    0.0000 C   0  0  0  0  0  0  0  0  0  0  0  0
    7.3931    0.0642    0.0000 C   0  0  0  0  0  0  0  0  0  0  0  0
    3.8076   -3.0340    0.0000 C   0  0  0  0  0  0  0  0  0  0  0  0
    8.2870    0.5988    0.0000 C   0  0  2  0  0  0  0  0  0  0  0  0
    9.1931    0.0850    0.0000 C   0  0  1  0  0  0  0  0  0  0  0  0
    8.2870   -1.4705    0.0000 C   0  0  0  0  0  0  0  0  0  0  0  0
    3.8242   -0.8786    0.0000 C   0  0  0  0  0  0  0  0  0  0  0  0
    9.1931   -0.9567    0.0000 C   0  0  0  0  0  0  0  0  0  0  0  0
    5.6610    0.0642    0.0000 C   0  0  0  0  0  0  0  0  0  0  0  0
    7.1698   -2.2019    0.0000 C   0  0  0  0  0  0  0  0  0  0  0  0
    4.7587   -0.4427    0.0000 C   0  0  0  0  0  0  0  0  0  0  0  0
    4.9092   -3.4704    0.0000 C   0  0  0  0  0  0  0  0  0  0  0  0
    7.7352   -1.8755    0.0000 C   0  0  0  0  0  0  0  0  0  0  0  0
    6.5271    0.5642    0.0000 C   0  0  0  0  0  0  0  0  0  0  0  0
    8.2619    1.6835    0.0000 C   0  0  0  0  0  0  0  0  0  0  0  0
    2.8763   -1.4066    0.0000 C   0  0  0  0  0  0  0  0  0  0  0  0
   10.1369    0.6202    0.0000 C   0  0  0  0  0  0  0  0  0  0  0  0
    2.8680   -2.4915    0.0000 C   0  0  0  0  0  0  0  0  0  0  0  0
    9.1931    2.2404    0.0000 C   0  0  1  0  0  0  0  0  0  0  0  0
   10.1369    1.7052    0.0000 C   0  0  0  0  0  0  0  0  0  0  0  0
    3.3109   -3.9020    0.0000 C   0  0  0  0  0  0  0  0  0  0  0  0
    4.1532   -3.9724    0.0000 C   0  0  0  0  0  0  0  0  0  0  0  0
   10.0629   -0.4083    0.0000 C   0  0  0  0  0  0  0  0  0  0  0  0
    8.6831    3.1006    0.0000 C   0  0  0  0  0  0  0  0  0  0  0  0
    9.6830    3.1122    0.0000 C   0  0  0  0  0  0  0  0  0  0  0  0
    6.3972   -0.5108    0.0000 H   0  0  0  0  0  0  0  0  0  0  0  0
    6.7612   -3.0578    0.0000 H   0  0  0  0  0  0  0  0  0  0  0  0
    7.1523   -2.3618    0.0000 H   0  0  0  0  0  0  0  0  0  0  0  0
    5.2478   -3.4811    0.0000 H   0  0  0  0  0  0  0  0  0  0  0  0
    6.0460   -3.4780    0.0000 H   0  0  0  0  0  0  0  0  0  0  0  0
    9.0165    1.0351    0.0000 H   0  0  0  0  0  0  0  0  0  0  0  0
    7.8824   -1.9403    0.0000 H   0  0  0  0  0  0  0  0  0  0  0  0
    8.6806   -1.9495    0.0000 H   0  0  0  0  0  0  0  0  0  0  0  0
    4.2324   -0.4120    0.0000 H   0  0  0  0  0  0  0  0  0  0  0  0
    3.4343   -0.3966    0.0000 H   0  0  0  0  0  0  0  0  0  0  0  0
    9.4022   -1.5404    0.0000 H   0  0  0  0  0  0  0  0  0  0  0  0
    9.8040   -0.8506    0.0000 H   0  0  0  0  0  0  0  0  0  0  0  0
    6.6949   -2.6004    0.0000 H   0  0  0  0  0  0  0  0  0  0  0  0
    7.5684   -2.6768    0.0000 H   0  0  0  0  0  0  0  0  0  0  0  0
    7.6448   -1.8034    0.0000 H   0  0  0  0  0  0  0  0  0  0  0  0
    5.3787   -0.4475    0.0000 H   0  0  0  0  0  0  0  0  0  0  0  0
    4.7635    0.1773    0.0000 H   0  0  0  0  0  0  0  0  0  0  0  0
    4.1388   -0.4379    0.0000 H   0  0  0  0  0  0  0  0  0  0  0  0
    4.2978   -3.5734    0.0000 H   0  0  0  0  0  0  0  0  0  0  0  0
    5.0122   -4.0818    0.0000 H   0  0  0  0  0  0  0  0  0  0  0  0
    5.5205   -3.3674    0.0000 H   0  0  0  0  0  0  0  0  0  0  0  0
    7.1526   -2.0876    0.0000 H   0  0  0  0  0  0  0  0  0  0  0  0
    7.9473   -2.4581    0.0000 H   0  0  0  0  0  0  0  0  0  0  0  0
    8.3178   -1.6634    0.0000 H   0  0  0  0  0  0  0  0  0  0  0  0
    6.5271    1.1842    0.0000 H   0  0  0  0  0  0  0  0  0  0  0  0
    8.0394    2.2622    0.0000 H   0  0  0  0  0  0  0  0  0  0  0  0
    7.6537    1.5633    0.0000 H   0  0  0  0  0  0  0  0  0  0  0  0
    2.6718   -0.8213    0.0000 H   0  0  0  0  0  0  0  0  0  0  0  0
    2.2647   -1.5079    0.0000 H   0  0  0  0  0  0  0  0  0  0  0  0
   10.3459    0.0365    0.0000 H   0  0  0  0  0  0  0  0  0  0  0  0
   10.7477    0.7263    0.0000 H   0  0  0  0  0  0  0  0  0  0  0  0
   10.7477    1.5991    0.0000 H   0  0  0  0  0  0  0  0  0  0  0  0
   10.3459    2.2889    0.0000 H   0  0  0  0  0  0  0  0  0  0  0  0
    2.7728   -3.5940    0.0000 H   0  0  0  0  0  0  0  0  0  0  0  0
    3.0030   -4.4401    0.0000 H   0  0  0  0  0  0  0  0  0  0  0  0
    3.8490   -4.2099    0.0000 H   0  0  0  0  0  0  0  0  0  0  0  0
    3.5714   -4.1867    0.0000 H   0  0  0  0  0  0  0  0  0  0  0  0
    4.3675   -4.5542    0.0000 H   0  0  0  0  0  0  0  0  0  0  0  0
    4.7350   -3.7581    0.0000 H   0  0  0  0  0  0  0  0  0  0  0  0
    9.7571   -0.9476    0.0000 H   0  0  0  0  0  0  0  0  0  0  0  0
   10.6023   -0.7142    0.0000 H   0  0  0  0  0  0  0  0  0  0  0  0
   10.3688    0.1310    0.0000 H   0  0  0  0  0  0  0  0  0  0  0  0
    9.2164    3.4168    0.0000 H   0  0  0  0  0  0  0  0  0  0  0  0
    8.3669    3.6340    0.0000 H   0  0  0  0  0  0  0  0  0  0  0  0
    8.1498    2.7844    0.0000 H   0  0  0  0  0  0  0  0  0  0  0  0
   10.9867    3.6642    0.0000 H   0  0  0  0  0  0  0  0  0  0  0  0
  1 19  2  0  0  0  0
  2 28  2  0  0  0  0
  3 35  1  0  0  0  0
  3 81  1  0  0  0  0
  4 35  2  0  0  0  0
  5  7  1  0  0  0  0
  5  9  1  0  0  0  0
  5 10  1  0  0  0  0
  5 20  1  1  0  0  0
  6  7  1  0  0  0  0
  6  8  1  0  0  0  0
  6 17  1  0  0  0  0
  6 21  1  1  0  0  0
  7 19  1  0  0  0  0
  7 36  1  6  0  0  0
  8 11  1  0  0  0  0
  8 13  1  0  0  0  0
  8 22  1  6  0  0  0
  9 12  1  0  0  0  0
  9 16  1  0  0  0  0
  9 23  1  6  0  0  0
 10 11  1  0  0  0  0
 10 37  1  0  0  0  0
 10 38  1  0  0  0  0
 11 39  1  0  0  0  0
 11 40  1  0  0  0  0
 12 14  1  0  0  0  0
 12 24  2  0  0  0  0
 13 28  1  0  0  0  0
 13 31  1  0  0  0  0
 13 32  1  0  0  0  0
 14 15  1  0  0  0  0
 14 25  1  0  0  0  0
 14 41  1  6  0  0  0
 15 18  1  0  0  0  0
 15 27  1  0  0  0  0
 15 33  1  1  0  0  0
 16 18  1  0  0  0  0
 16 42  1  0  0  0  0
 16 43  1  0  0  0  0
 17 26  1  0  0  0  0
 17 44  1  0  0  0  0
 17 45  1  0  0  0  0
 18 46  1  0  0  0  0
 18 47  1  0  0  0  0
 19 24  1  0  0  0  0
 20 48  1  0  0  0  0
 20 49  1  0  0  0  0
 20 50  1  0  0  0  0
 21 51  1  0  0  0  0
 21 52  1  0  0  0  0
 21 53  1  0  0  0  0
 22 54  1  0  0  0  0
 22 55  1  0  0  0  0
 22 56  1  0  0  0  0
 23 57  1  0  0  0  0
 23 58  1  0  0  0  0
 23 59  1  0  0  0  0
 24 60  1  0  0  0  0
 25 29  1  0  0  0  0
 25 61  1  0  0  0  0
 25 62  1  0  0  0  0
 26 28  1  0  0  0  0
 26 63  1  0  0  0  0
 26 64  1  0  0  0  0
 27 30  1  0  0  0  0
 27 65  1  0  0  0  0
 27 66  1  0  0  0  0
 29 30  1  0  0  0  0
 29 34  1  6  0  0  0
 29 35  1  0  0  0  0
 30 67  1  0  0  0  0
 30 68  1  0  0  0  0
 31 69  1  0  0  0  0
 31 70  1  0  0  0  0
 31 71  1  0  0  0  0
 32 72  1  0  0  0  0
 32 73  1  0  0  0  0
 32 74  1  0  0  0  0
 33 75  1  0  0  0  0
 33 76  1  0  0  0  0
 33 77  1  0  0  0  0
 34 78  1  0  0  0  0
 34 79  1  0  0  0  0
 34 80  1  0  0  0  0
M  END
> <PUBCHEM_COMPOUND_CID>
90179178

> <PUBCHEM_COMPOUND_CANONICALIZED>
1

> <PUBCHEM_CACTVS_COMPLEXITY>
1050

> <PUBCHEM_CACTVS_HBOND_ACCEPTOR>
4

> <PUBCHEM_CACTVS_HBOND_DONOR>
1

> <PUBCHEM_CACTVS_ROTATABLE_BOND>
1

> <PUBCHEM_CACTVS_SUBSKEYS>
AAADcfB4OAAAAAAAAAAAAAAAAAAAAAAAAAAwYMGCAAAAAADAAAAAGgAACAAADwSAgAACCAAAAgCIAqDSCAAAAAAgAAAACAEAAEgAABIAAQAAQAAEgAAIAQOIyPCPgAAAAAAAAACAAAQAACAAAAAAAAAAAA==

> <PUBCHEM_IUPAC_OPENEYE_NAME>
(2S,4aS,6aS,6aS,6bR,8aR,12aR,14bS)-2,4a,6a,6b,8a,9,9,12a-octamethyl-10,13-dioxo-3,4,5,6,6a,7,8,11,12,14b-decahydro-1H-picene-2-carboxylic acid

> <PUBCHEM_IUPAC_CAS_NAME>
(2S,4aS,6aS,6aS,6bR,8aR,12aR,14bS)-2,4a,6a,6b,8a,9,9,12a-octamethyl-10,13-dioxo-3,4,5,6,6a,7,8,11,12,14b-decahydro-1H-picene-2-carboxylic acid

> <PUBCHEM_IUPAC_NAME_MARKUP>
(2<I>S</I>,4<I>a</I><I>S</I>,6<I>a</I><I>S</I>,6<I>a</I><I>S</I>,6<I>b</I><I>R</I>,8<I>a</I><I>R</I>,12<I>a</I><I>R</I>,14<I>b</I><I>S</I>)-2,4<I>a</I>,6<I>a</I>,6<I>b</I>,8<I>a</I>,9,9,12<I>a</I>-octamethyl-10,13-dioxo-3,4,5,6,6<I>a</I>,7,8,11,12,14<I>b</I>-decahydro-1<I>H</I>-picene-2-carboxylic acid

> <PUBCHEM_IUPAC_NAME>
(2S,4aS,6aS,6aS,6bR,8aR,12aR,14bS)-2,4a,6a,6b,8a,9,9,12a-octamethyl-10,13-dioxo-3,4,5,6,6a,7,8,11,12,14b-decahydro-1H-picene-2-carboxylic acid

> <PUBCHEM_IUPAC_SYSTEMATIC_NAME>
(2S,4aS,6aS,6aS,6bR,8aR,12aR,14bS)-2,4a,6a,6b,8a,9,9,12a-octamethyl-10,13-bis(oxidanylidene)-3,4,5,6,6a,7,8,11,12,14b-decahydro-1H-picene-2-carboxylic acid

> <PUBCHEM_IUPAC_TRADITIONAL_NAME>
(2S,4aS,6aS,6aS,6bR,8aR,12aR,14bS)-10,13-diketo-2,4a,6a,6b,8a,9,9,12a-octamethyl-3,4,5,6,6a,7,8,11,12,14b-decahydro-1H-picene-2-carboxylic acid

> <PUBCHEM_IUPAC_INCHI>
InChI=1S/C31H46O4/c1-25(2)22(33)9-10-30(7)23-21(32)17-19-20-18-27(4,24(34)35)12-11-26(20,3)13-14-28(19,5)29(23,6)15-16-31(25,30)8/h17,20,23H,9-16,18H2,1-8H3,(H,34,35)/t20-,23+,26-,27+,28-,29-,30-,31+/m1/s1

> <PUBCHEM_IUPAC_INCHIKEY>
VSRCXKRNCXYYDC-DCCQKBBKSA-N

> <PUBCHEM_XLOGP3_AA>
6.5

> <PUBCHEM_EXACT_MASS>
482.33960994

> <PUBCHEM_MOLECULAR_FORMULA>
C31H46O4

> <PUBCHEM_MOLECULAR_WEIGHT>
482.7

> <PUBCHEM_OPENEYE_CAN_SMILES>
CC1(C(=O)CCC2(C1(CCC3(C2C(=O)C=C4C3(CCC5(C4CC(CC5)(C)C(=O)O)C)C)C)C)C)C

> <PUBCHEM_OPENEYE_ISO_SMILES>
C[C@]12CC[C@](C[C@@H]1C3=CC(=O)[C@@H]4[C@]5(CCC(=O)C([C@@]5(CC[C@]4([C@@]3(CC2)C)C)C)(C)C)C)(C)C(=O)O

> <PUBCHEM_CACTVS_TPSA>
71.4

> <PUBCHEM_MONOISOTOPIC_WEIGHT>
482.33960994

> <PUBCHEM_TOTAL_CHARGE>
0

> <PUBCHEM_HEAVY_ATOM_COUNT>
35

> <PUBCHEM_ATOM_DEF_STEREO_COUNT>
8

> <PUBCHEM_ATOM_UDEF_STEREO_COUNT>
0

> <PUBCHEM_BOND_DEF_STEREO_COUNT>
0

> <PUBCHEM_BOND_UDEF_STEREO_COUNT>
0

> <PUBCHEM_ISOTOPIC_ATOM_COUNT>
0

> <PUBCHEM_COMPONENT_COUNT>
1

> <PUBCHEM_CACTVS_TAUTO_COUNT>
-1

> <PUBCHEM_COORDINATE_TYPE>
1
5
255

> <PUBCHEM_BONDANNOTATIONS>
14  41  6
15  33  5
29  34  6
5  20  5
6  21  5
7  36  6
8  22  6
9  23  6

$$$$
