 
  -OEChem-10192103542D

 80 82  0     1  0  0  0  0  0999 V2000
   10.3312    0.7010    0.0000 S   0  0  0  0  0  0  0  0  0  0  0  0
    7.7331   -0.7990    0.0000 O   0  0  0  0  0  0  0  0  0  0  0  0
    6.8671    1.7010    0.0000 O   0  0  0  0  0  0  0  0  0  0  0  0
    9.4651   -0.7990    0.0000 O   0  0  0  0  0  0  0  0  0  0  0  0
    9.4651    0.2010    0.0000 O   0  0  0  0  0  0  0  0  0  0  0  0
    6.0010   -0.7990    0.0000 O   0  0  0  0  0  0  0  0  0  0  0  0
    4.2690   -0.7990    0.0000 O   0  0  0  0  0  0  0  0  0  0  0  0
    9.4651   -3.7990    0.0000 O   0  0  0  0  0  0  0  0  0  0  0  0
   11.1972   -2.7990    0.0000 O   0  0  0  0  0  0  0  0  0  0  0  0
    6.0010   -2.7990    0.0000 O   0  0  0  0  0  0  0  0  0  0  0  0
    4.2690   -3.7990    0.0000 O   0  0  0  0  0  0  0  0  0  0  0  0
    2.5369   -2.7990    0.0000 O   0  0  0  0  0  0  0  0  0  0  0  0
   12.0632   -1.2990    0.0000 O   0  0  0  0  0  0  0  0  0  0  0  0
   11.1972    1.2010    0.0000 O   0  0  0  0  0  0  0  0  0  0  0  0
   10.8312   -0.1651    0.0000 O   0  0  0  0  0  0  0  0  0  0  0  0
    9.8312    1.5670    0.0000 O   0  0  0  0  0  0  0  0  0  0  0  0
    7.5991    3.4330    0.0000 O   0  0  0  0  0  0  0  0  0  0  0  0
    8.5991   -4.2990    0.0000 O   0  0  0  0  0  0  0  0  0  0  0  0
    9.0991    2.5670    0.0000 N   0  0  0  0  0  0  0  0  0  0  0  0
    7.7331   -2.7990    0.0000 N   0  0  0  0  0  0  0  0  0  0  0  0
    7.7331    0.2010    0.0000 C   0  0  1  0  0  0  0  0  0  0  0  0
    8.5991    0.7010    0.0000 C   0  0  1  0  0  0  0  0  0  0  0  0
    6.8671    0.7010    0.0000 C   0  0  1  0  0  0  0  0  0  0  0  0
    8.5991    1.7010    0.0000 C   0  0  2  0  0  0  0  0  0  0  0  0
    8.5991   -1.2990    0.0000 C   0  0  2  0  0  0  0  0  0  0  0  0
    8.5991   -2.2990    0.0000 C   0  0  1  0  0  0  0  0  0  0  0  0
    9.4651   -2.7990    0.0000 C   0  0  2  0  0  0  0  0  0  0  0  0
   10.3312   -2.2990    0.0000 C   0  0  1  0  0  0  0  0  0  0  0  0
    7.7331    2.2010    0.0000 C   0  0  0  0  0  0  0  0  0  0  0  0
   10.3312   -1.2990    0.0000 C   0  0  1  0  0  0  0  0  0  0  0  0
    6.0010    0.2010    0.0000 C   0  0  0  0  0  0  0  0  0  0  0  0
    5.1350   -1.2990    0.0000 C   0  0  2  0  0  0  0  0  0  0  0  0
    5.1350   -2.2990    0.0000 C   0  0  2  0  0  0  0  0  0  0  0  0
    4.2690   -2.7990    0.0000 C   0  0  1  0  0  0  0  0  0  0  0  0
    3.4030   -2.2990    0.0000 C   0  0  1  0  0  0  0  0  0  0  0  0
   11.1972   -0.7990    0.0000 C   0  0  0  0  0  0  0  0  0  0  0  0
    3.4030   -1.2990    0.0000 C   0  0  2  0  0  0  0  0  0  0  0  0
    8.5991    3.4330    0.0000 C   0  0  0  0  0  0  0  0  0  0  0  0
    7.7331   -3.7990    0.0000 C   0  0  0  0  0  0  0  0  0  0  0  0
    2.5369   -0.7990    0.0000 C   0  0  0  0  0  0  0  0  0  0  0  0
    9.0991    4.2990    0.0000 C   0  0  0  0  0  0  0  0  0  0  0  0
    6.8671   -4.2990    0.0000 C   0  0  0  0  0  0  0  0  0  0  0  0
    8.2700   -0.1090    0.0000 H   0  0  0  0  0  0  0  0  0  0  0  0
    9.1360    1.0110    0.0000 H   0  0  0  0  0  0  0  0  0  0  0  0
    6.3301    1.0110    0.0000 H   0  0  0  0  0  0  0  0  0  0  0  0
    9.1980    1.5405    0.0000 H   0  0  0  0  0  0  0  0  0  0  0  0
    8.0622   -1.6090    0.0000 H   0  0  0  0  0  0  0  0  0  0  0  0
    8.5991   -2.9190    0.0000 H   0  0  0  0  0  0  0  0  0  0  0  0
    8.9282   -3.1090    0.0000 H   0  0  0  0  0  0  0  0  0  0  0  0
   10.3312   -2.9190    0.0000 H   0  0  0  0  0  0  0  0  0  0  0  0
    8.1316    2.6759    0.0000 H   0  0  0  0  0  0  0  0  0  0  0  0
    7.3346    2.6759    0.0000 H   0  0  0  0  0  0  0  0  0  0  0  0
   10.3312   -0.6790    0.0000 H   0  0  0  0  0  0  0  0  0  0  0  0
    5.7890    0.7836    0.0000 H   0  0  0  0  0  0  0  0  0  0  0  0
    5.3905    0.0933    0.0000 H   0  0  0  0  0  0  0  0  0  0  0  0
    5.6720   -1.6090    0.0000 H   0  0  0  0  0  0  0  0  0  0  0  0
    5.1350   -2.9190    0.0000 H   0  0  0  0  0  0  0  0  0  0  0  0
    9.7191    2.5670    0.0000 H   0  0  0  0  0  0  0  0  0  0  0  0
    7.1962   -2.4890    0.0000 H   0  0  0  0  0  0  0  0  0  0  0  0
    3.7320   -3.1090    0.0000 H   0  0  0  0  0  0  0  0  0  0  0  0
    3.4030   -2.9190    0.0000 H   0  0  0  0  0  0  0  0  0  0  0  0
   11.5957   -0.3241    0.0000 H   0  0  0  0  0  0  0  0  0  0  0  0
   10.7987   -0.3241    0.0000 H   0  0  0  0  0  0  0  0  0  0  0  0
    3.4030   -0.6790    0.0000 H   0  0  0  0  0  0  0  0  0  0  0  0
   10.0021   -4.1090    0.0000 H   0  0  0  0  0  0  0  0  0  0  0  0
   11.1972   -3.4190    0.0000 H   0  0  0  0  0  0  0  0  0  0  0  0
    2.8469   -0.2621    0.0000 H   0  0  0  0  0  0  0  0  0  0  0  0
    2.0000   -0.4890    0.0000 H   0  0  0  0  0  0  0  0  0  0  0  0
    2.2269   -1.3360    0.0000 H   0  0  0  0  0  0  0  0  0  0  0  0
    6.5380   -2.4890    0.0000 H   0  0  0  0  0  0  0  0  0  0  0  0
    3.7320   -4.1090    0.0000 H   0  0  0  0  0  0  0  0  0  0  0  0
    2.0000   -2.4890    0.0000 H   0  0  0  0  0  0  0  0  0  0  0  0
   12.6002   -0.9890    0.0000 H   0  0  0  0  0  0  0  0  0  0  0  0
    9.6360    3.9890    0.0000 H   0  0  0  0  0  0  0  0  0  0  0  0
    9.4091    4.8360    0.0000 H   0  0  0  0  0  0  0  0  0  0  0  0
    8.5622    4.6090    0.0000 H   0  0  0  0  0  0  0  0  0  0  0  0
    6.5571   -3.7621    0.0000 H   0  0  0  0  0  0  0  0  0  0  0  0
    6.3301   -4.6090    0.0000 H   0  0  0  0  0  0  0  0  0  0  0  0
    7.1771   -4.8360    0.0000 H   0  0  0  0  0  0  0  0  0  0  0  0
   11.7341    0.8910    0.0000 H   0  0  0  0  0  0  0  0  0  0  0  0
  1  5  1  0  0  0  0
  1 14  1  0  0  0  0
  1 15  2  0  0  0  0
  1 16  2  0  0  0  0
 21  2  1  6  0  0  0
 25  2  1  6  0  0  0
  3 23  1  0  0  0  0
  3 29  1  0  0  0  0
  4 25  1  0  0  0  0
  4 30  1  0  0  0  0
 22  5  1  1  0  0  0
  6 31  1  0  0  0  0
 32  6  1  1  0  0  0
  7 32  1  0  0  0  0
  7 37  1  0  0  0  0
 27  8  1  6  0  0  0
  8 65  1  0  0  0  0
 28  9  1  1  0  0  0
  9 66  1  0  0  0  0
 33 10  1  1  0  0  0
 10 70  1  0  0  0  0
 34 11  1  6  0  0  0
 11 71  1  0  0  0  0
 35 12  1  6  0  0  0
 12 72  1  0  0  0  0
 13 36  1  0  0  0  0
 13 73  1  0  0  0  0
 14 80  1  0  0  0  0
 17 38  2  0  0  0  0
 18 39  2  0  0  0  0
 24 19  1  6  0  0  0
 19 38  1  0  0  0  0
 19 58  1  0  0  0  0
 26 20  1  1  0  0  0
 20 39  1  0  0  0  0
 20 59  1  0  0  0  0
 21 22  1  0  0  0  0
 21 23  1  0  0  0  0
 21 43  1  0  0  0  0
 22 24  1  0  0  0  0
 22 44  1  0  0  0  0
 23 31  1  1  0  0  0
 23 45  1  0  0  0  0
 24 29  1  0  0  0  0
 24 46  1  0  0  0  0
 25 26  1  0  0  0  0
 25 47  1  0  0  0  0
 26 27  1  0  0  0  0
 26 48  1  0  0  0  0
 27 28  1  0  0  0  0
 27 49  1  0  0  0  0
 28 30  1  0  0  0  0
 28 50  1  0  0  0  0
 29 51  1  0  0  0  0
 29 52  1  0  0  0  0
 30 36  1  6  0  0  0
 30 53  1  0  0  0  0
 31 54  1  0  0  0  0
 31 55  1  0  0  0  0
 32 33  1  0  0  0  0
 32 56  1  0  0  0  0
 33 34  1  0  0  0  0
 33 57  1  0  0  0  0
 34 35  1  0  0  0  0
 34 60  1  0  0  0  0
 35 37  1  0  0  0  0
 35 61  1  0  0  0  0
 36 62  1  0  0  0  0
 36 63  1  0  0  0  0
 37 40  1  6  0  0  0
 37 64  1  0  0  0  0
 38 41  1  0  0  0  0
 39 42  1  0  0  0  0
 40 67  1  0  0  0  0
 40 68  1  0  0  0  0
 40 69  1  0  0  0  0
 41 74  1  0  0  0  0
 41 75  1  0  0  0  0
 41 76  1  0  0  0  0
 42 77  1  0  0  0  0
 42 78  1  0  0  0  0
 42 79  1  0  0  0  0
M  END
> <PUBCHEM_COMPOUND_CID>
5289384

> <PUBCHEM_COMPOUND_CANONICALIZED>
1

> <PUBCHEM_CACTVS_COMPLEXITY>
1030

> <PUBCHEM_CACTVS_HBOND_ACCEPTOR>
17

> <PUBCHEM_CACTVS_HBOND_DONOR>
9

> <PUBCHEM_CACTVS_ROTATABLE_BOND>
10

> <PUBCHEM_CACTVS_SUBSKEYS>
AAADcfB7PgBAAAAAAAAAAAAAAAAAAAAAAAAkSJAAAAAAAAAAAAAAHgAQCAAACDzxgAcCCALABoAIAAEQEDAAAAAAAAAAAIAIAAATEAIAgAAnQAAHFgCXAAHwcA8AAAAAAAAAAAAAAAAAAAAAAAAAAAAAAA==

> <PUBCHEM_IUPAC_OPENEYE_NAME>
[(2R,3R,4R,5S)-5-acetamido-3-[(2S,3R,4R,5S,6R)-3-acetamido-4,5-dihydroxy-6-(hydroxymethyl)tetrahydropyran-2-yl]oxy-2-[[(2R,3S,4R,5S,6S)-3,4,5-trihydroxy-6-methyl-tetrahydropyran-2-yl]oxymethyl]tetrahydropyran-4-yl] hydrogen sulfate

> <PUBCHEM_IUPAC_CAS_NAME>
sulfuric acid [(2R,3R,4R,5S)-5-acetamido-3-[[(2S,3R,4R,5S,6R)-3-acetamido-4,5-dihydroxy-6-(hydroxymethyl)-2-oxanyl]oxy]-2-[[(2R,3S,4R,5S,6S)-3,4,5-trihydroxy-6-methyl-2-oxanyl]oxymethyl]-4-oxanyl] ester

> <PUBCHEM_IUPAC_NAME_MARKUP>
[(2<I>R</I>,3<I>R</I>,4<I>R</I>,5<I>S</I>)-5-acetamido-3-[(2<I>S</I>,3<I>R</I>,4<I>R</I>,5<I>S</I>,6<I>R</I>)-3-acetamido-4,5-dihydroxy-6-(hydroxymethyl)oxan-2-yl]oxy-2-[[(2<I>R</I>,3<I>S</I>,4<I>R</I>,5<I>S</I>,6<I>S</I>)-3,4,5-trihydroxy-6-methyloxan-2-yl]oxymethyl]oxan-4-yl] hydrogen sulfate

> <PUBCHEM_IUPAC_NAME>
[(2R,3R,4R,5S)-5-acetamido-3-[(2S,3R,4R,5S,6R)-3-acetamido-4,5-dihydroxy-6-(hydroxymethyl)oxan-2-yl]oxy-2-[[(2R,3S,4R,5S,6S)-3,4,5-trihydroxy-6-methyloxan-2-yl]oxymethyl]oxan-4-yl] hydrogen sulfate

> <PUBCHEM_IUPAC_SYSTEMATIC_NAME>
[(2R,3R,4R,5S)-5-acetamido-3-[(2S,3R,4R,5S,6R)-3-acetamido-6-(hydroxymethyl)-4,5-bis(oxidanyl)oxan-2-yl]oxy-2-[[(2R,3S,4R,5S,6S)-6-methyl-3,4,5-tris(oxidanyl)oxan-2-yl]oxymethyl]oxan-4-yl] hydrogen sulfate

> <PUBCHEM_IUPAC_TRADITIONAL_NAME>
sulfuric acid [(2R,3R,4R,5S)-5-acetamido-3-[(2S,3R,4R,5S,6R)-3-acetamido-4,5-dihydroxy-6-methylol-tetrahydropyran-2-yl]oxy-2-[[(2R,3S,4R,5S,6S)-3,4,5-trihydroxy-6-methyl-tetrahydropyran-2-yl]oxymethyl]tetrahydropyran-4-yl] ester

> <PUBCHEM_IUPAC_INCHI>
InChI=1S/C22H38N2O17S/c1-7-14(28)17(31)18(32)22(38-7)37-6-12-20(19(41-42(33,34)35)10(5-36-12)23-8(2)26)40-21-13(24-9(3)27)16(30)15(29)11(4-25)39-21/h7,10-22,25,28-32H,4-6H2,1-3H3,(H,23,26)(H,24,27)(H,33,34,35)/t7-,10-,11+,12+,13+,14+,15+,16+,17+,18-,19+,20+,21-,22+/m0/s1

> <PUBCHEM_IUPAC_INCHIKEY>
QQSQDUUQYVZUGP-GESBMTLNSA-N

> <PUBCHEM_XLOGP3_AA>
-5.7

> <PUBCHEM_EXACT_MASS>
634.18911892

> <PUBCHEM_MOLECULAR_FORMULA>
C22H38N2O17S

> <PUBCHEM_MOLECULAR_WEIGHT>
634.6

> <PUBCHEM_OPENEYE_CAN_SMILES>
CC1C(C(C(C(O1)OCC2C(C(C(CO2)NC(=O)C)OS(=O)(=O)O)OC3C(C(C(C(O3)CO)O)O)NC(=O)C)O)O)O

> <PUBCHEM_OPENEYE_ISO_SMILES>
C[C@H]1[C@H]([C@H]([C@@H]([C@@H](O1)OC[C@@H]2[C@H]([C@@H]([C@H](CO2)NC(=O)C)OS(=O)(=O)O)O[C@H]3[C@@H]([C@H]([C@@H]([C@H](O3)CO)O)O)NC(=O)C)O)O)O

> <PUBCHEM_CACTVS_TPSA>
298

> <PUBCHEM_MONOISOTOPIC_WEIGHT>
634.18911892

> <PUBCHEM_TOTAL_CHARGE>
0

> <PUBCHEM_HEAVY_ATOM_COUNT>
42

> <PUBCHEM_ATOM_DEF_STEREO_COUNT>
14

> <PUBCHEM_ATOM_UDEF_STEREO_COUNT>
0

> <PUBCHEM_BOND_DEF_STEREO_COUNT>
0

> <PUBCHEM_BOND_UDEF_STEREO_COUNT>
0

> <PUBCHEM_ISOTOPIC_ATOM_COUNT>
0

> <PUBCHEM_COMPONENT_COUNT>
1

> <PUBCHEM_CACTVS_TAUTO_COUNT>
-1

> <PUBCHEM_COORDINATE_TYPE>
1
5
255

> <PUBCHEM_BONDANNOTATIONS>
33  10  5
34  11  6
35  12  6
24  19  6
21  2  6
25  2  6
26  20  5
23  31  5
30  36  6
37  40  6
22  5  5
32  6  5
27  8  6
28  9  5

$$$$
