 
  -OEChem-10192104192D

 40 42  0     1  0  0  0  0  0999 V2000
    6.7826    2.4052    0.0000 O   0  0  0  0  0  0  0  0  0  0  0  0
   10.6333   -1.2512    0.0000 O   0  0  0  0  0  0  0  0  0  0  0  0
    2.6060   -0.2479    0.0000 O   0  0  0  0  0  0  0  0  0  0  0  0
    9.3417   -2.4052    0.0000 O   0  0  0  0  0  0  0  0  0  0  0  0
    2.9726    1.4449    0.0000 O   0  0  0  0  0  0  0  0  0  0  0  0
    7.2826   -0.1336    0.0000 C   0  0  3  0  0  0  0  0  0  0  0  0
    6.2826   -0.1336    0.0000 C   0  0  3  0  0  0  0  0  0  0  0  0
    5.9736    0.8174    0.0000 C   0  0  3  0  0  0  0  0  0  0  0  0
    7.5917    0.8174    0.0000 C   0  0  3  0  0  0  0  0  0  0  0  0
    7.9676   -0.9184    0.0000 C   0  0  0  0  0  0  0  0  0  0  0  0
    6.7826    1.4052    0.0000 C   0  0  0  0  0  0  0  0  0  0  0  0
    5.5977   -0.9184    0.0000 C   0  0  0  0  0  0  0  0  0  0  0  0
    4.9582    1.0497    0.0000 C   0  0  0  0  0  0  0  0  0  0  0  0
    8.6071    1.0497    0.0000 C   0  0  0  0  0  0  0  0  0  0  0  0
    8.9881   -0.7096    0.0000 C   0  0  3  0  0  0  0  0  0  0  0  0
    4.2553    0.2810    0.0000 C   0  0  3  0  0  0  0  0  0  0  0  0
    4.5772   -0.7096    0.0000 C   0  0  0  0  0  0  0  0  0  0  0  0
    9.3100    0.2810    0.0000 C   0  0  0  0  0  0  0  0  0  0  0  0
    9.6544   -1.4554    0.0000 C   0  0  0  0  0  0  0  0  0  0  0  0
    3.2779    0.4927    0.0000 C   0  0  0  0  0  0  0  0  0  0  0  0
    7.0261   -0.6981    0.0000 H   0  0  0  0  0  0  0  0  0  0  0  0
    6.5392   -0.6981    0.0000 H   0  0  0  0  0  0  0  0  0  0  0  0
    5.8494    1.4249    0.0000 H   0  0  0  0  0  0  0  0  0  0  0  0
    7.7159    1.4249    0.0000 H   0  0  0  0  0  0  0  0  0  0  0  0
    7.4376   -1.2401    0.0000 H   0  0  0  0  0  0  0  0  0  0  0  0
    8.1939   -1.4956    0.0000 H   0  0  0  0  0  0  0  0  0  0  0  0
    5.3713   -1.4956    0.0000 H   0  0  0  0  0  0  0  0  0  0  0  0
    6.1276   -1.2401    0.0000 H   0  0  0  0  0  0  0  0  0  0  0  0
    5.1978    1.6215    0.0000 H   0  0  0  0  0  0  0  0  0  0  0  0
    4.4358    1.3836    0.0000 H   0  0  0  0  0  0  0  0  0  0  0  0
    9.1294    1.3836    0.0000 H   0  0  0  0  0  0  0  0  0  0  0  0
    8.3674    1.6215    0.0000 H   0  0  0  0  0  0  0  0  0  0  0  0
    8.7931   -1.2982    0.0000 H   0  0  0  0  0  0  0  0  0  0  0  0
    3.8395   -0.1789    0.0000 H   0  0  0  0  0  0  0  0  0  0  0  0
    3.9634   -0.7975    0.0000 H   0  0  0  0  0  0  0  0  0  0  0  0
    4.5587   -1.3294    0.0000 H   0  0  0  0  0  0  0  0  0  0  0  0
    9.8582   -0.0087    0.0000 H   0  0  0  0  0  0  0  0  0  0  0  0
    9.6892    0.7715    0.0000 H   0  0  0  0  0  0  0  0  0  0  0  0
   11.0464   -1.7136    0.0000 H   0  0  0  0  0  0  0  0  0  0  0  0
    2.0000   -0.1166    0.0000 H   0  0  0  0  0  0  0  0  0  0  0  0
  1 11  2  0  0  0  0
  2 19  1  0  0  0  0
  2 39  1  0  0  0  0
  3 20  1  0  0  0  0
  3 40  1  0  0  0  0
  4 19  2  0  0  0  0
  5 20  2  0  0  0  0
  6  7  1  0  0  0  0
  6  9  1  0  0  0  0
  6 10  1  0  0  0  0
  6 21  1  0  0  0  0
  7  8  1  0  0  0  0
  7 12  1  0  0  0  0
  7 22  1  0  0  0  0
  8 11  1  0  0  0  0
  8 13  1  0  0  0  0
  8 23  1  0  0  0  0
  9 11  1  0  0  0  0
  9 14  1  0  0  0  0
  9 24  1  0  0  0  0
 10 15  1  0  0  0  0
 10 25  1  0  0  0  0
 10 26  1  0  0  0  0
 12 17  1  0  0  0  0
 12 27  1  0  0  0  0
 12 28  1  0  0  0  0
 13 16  1  0  0  0  0
 13 29  1  0  0  0  0
 13 30  1  0  0  0  0
 14 18  1  0  0  0  0
 14 31  1  0  0  0  0
 14 32  1  0  0  0  0
 15 18  1  0  0  0  0
 15 19  1  0  0  0  0
 15 33  1  0  0  0  0
 16 17  1  0  0  0  0
 16 20  1  0  0  0  0
 16 34  1  0  0  0  0
 17 35  1  0  0  0  0
 17 36  1  0  0  0  0
 18 37  1  0  0  0  0
 18 38  1  0  0  0  0
M  END
> <PUBCHEM_COMPOUND_CID>
59963617

> <PUBCHEM_COMPOUND_CANONICALIZED>
1

> <PUBCHEM_CACTVS_COMPLEXITY>
457

> <PUBCHEM_CACTVS_HBOND_ACCEPTOR>
5

> <PUBCHEM_CACTVS_HBOND_DONOR>
2

> <PUBCHEM_CACTVS_ROTATABLE_BOND>
2

> <PUBCHEM_CACTVS_SUBSKEYS>
AAADceBwOAAAAAAAAAAAAAAAAAAAAYAAAAAwYAAAAAAAAGAAAAAAGgAACAAADQSAgAAACAAAAgAIAICQCAAAAAAAAAAAAAEAAAAAABIAAAAAQAAEAAAAAAGIzvCugAAAAAAAAACAAAQAACAAAQAACAAAAA==

> <PUBCHEM_IUPAC_OPENEYE_NAME>
9-oxo-1,2,3,4,4a,4b,5,6,7,8,8a,9a-dodecahydrofluorene-2,6-dicarboxylic acid

> <PUBCHEM_IUPAC_CAS_NAME>
9-oxo-1,2,3,4,4a,4b,5,6,7,8,8a,9a-dodecahydrofluorene-2,6-dicarboxylic acid

> <PUBCHEM_IUPAC_NAME_MARKUP>
9-oxo-1,2,3,4,4<I>a</I>,4<I>b</I>,5,6,7,8,8<I>a</I>,9<I>a</I>-dodecahydrofluorene-2,6-dicarboxylic acid

> <PUBCHEM_IUPAC_NAME>
9-oxo-1,2,3,4,4a,4b,5,6,7,8,8a,9a-dodecahydrofluorene-2,6-dicarboxylic acid

> <PUBCHEM_IUPAC_SYSTEMATIC_NAME>
9-oxidanylidene-1,2,3,4,4a,4b,5,6,7,8,8a,9a-dodecahydrofluorene-2,6-dicarboxylic acid

> <PUBCHEM_IUPAC_TRADITIONAL_NAME>
9-keto-1,2,3,4,4a,4b,5,6,7,8,8a,9a-dodecahydrofluorene-2,6-dicarboxylic acid

> <PUBCHEM_IUPAC_INCHI>
InChI=1S/C15H20O5/c16-13-10-4-2-7(14(17)18)5-11(10)9-3-1-8(15(19)20)6-12(9)13/h7-12H,1-6H2,(H,17,18)(H,19,20)

> <PUBCHEM_IUPAC_INCHIKEY>
TYXYSHKVWPCRKS-UHFFFAOYSA-N

> <PUBCHEM_XLOGP3_AA>
1.2

> <PUBCHEM_EXACT_MASS>
280.13107373

> <PUBCHEM_MOLECULAR_FORMULA>
C15H20O5

> <PUBCHEM_MOLECULAR_WEIGHT>
280.32

> <PUBCHEM_OPENEYE_CAN_SMILES>
C1CC2C3CC(CCC3C(=O)C2CC1C(=O)O)C(=O)O

> <PUBCHEM_OPENEYE_ISO_SMILES>
C1CC2C3CC(CCC3C(=O)C2CC1C(=O)O)C(=O)O

> <PUBCHEM_CACTVS_TPSA>
91.7

> <PUBCHEM_MONOISOTOPIC_WEIGHT>
280.13107373

> <PUBCHEM_TOTAL_CHARGE>
0

> <PUBCHEM_HEAVY_ATOM_COUNT>
20

> <PUBCHEM_ATOM_DEF_STEREO_COUNT>
0

> <PUBCHEM_ATOM_UDEF_STEREO_COUNT>
6

> <PUBCHEM_BOND_DEF_STEREO_COUNT>
0

> <PUBCHEM_BOND_UDEF_STEREO_COUNT>
0

> <PUBCHEM_ISOTOPIC_ATOM_COUNT>
0

> <PUBCHEM_COMPONENT_COUNT>
1

> <PUBCHEM_CACTVS_TAUTO_COUNT>
-1

> <PUBCHEM_COORDINATE_TYPE>
1
5
255

> <PUBCHEM_BONDANNOTATIONS>
15  19  3
16  20  3
6  10  3
7  12  3
8  13  3
9  14  3

$$$$
