 
  -OEChem-10192104112D

 60 60  0     1  0  0  0  0  0999 V2000
    3.7320   -3.8450    0.0000 O   0  0  0  0  0  0  0  0  0  0  0  0
    5.4641   -3.8450    0.0000 O   0  0  0  0  0  0  0  0  0  0  0  0
    5.4641   -5.8450    0.0000 O   0  0  0  0  0  0  0  0  0  0  0  0
    2.0000   -5.8450    0.0000 O   0  0  0  0  0  0  0  0  0  0  0  0
   10.6603    3.1550    0.0000 O   0  0  0  0  0  0  0  0  0  0  0  0
   10.6603    6.1550    0.0000 O   0  0  0  0  0  0  0  0  0  0  0  0
   11.5263    4.6550    0.0000 O   0  0  0  0  0  0  0  0  0  0  0  0
    4.5981   -5.3450    0.0000 C   0  0  2  0  0  0  0  0  0  0  0  0
    2.8660   -5.3450    0.0000 C   0  0  2  0  0  0  0  0  0  0  0  0
    3.7320   -5.8450    0.0000 C   0  0  0  0  0  0  0  0  0  0  0  0
    4.5981   -4.3450    0.0000 C   0  0  1  0  0  0  0  0  0  0  0  0
    2.8660   -4.3450    0.0000 C   0  0  2  0  0  0  0  0  0  0  0  0
    5.4641   -2.8450    0.0000 C   0  0  1  0  0  0  0  0  0  0  0  0
    6.3301   -2.3450    0.0000 C   0  0  0  0  0  0  0  0  0  0  0  0
    6.3301   -1.3450    0.0000 C   0  0  0  0  0  0  0  0  0  0  0  0
    7.1962   -0.8450    0.0000 C   0  0  0  0  0  0  0  0  0  0  0  0
    2.0000   -3.8450    0.0000 C   0  0  0  0  0  0  0  0  0  0  0  0
    7.1962    0.1550    0.0000 C   0  0  0  0  0  0  0  0  0  0  0  0
    8.0622    0.6550    0.0000 C   0  0  0  0  0  0  0  0  0  0  0  0
    4.5981   -2.3450    0.0000 C   0  0  0  0  0  0  0  0  0  0  0  0
    8.0622    1.6550    0.0000 C   0  0  0  0  0  0  0  0  0  0  0  0
    8.9282    2.1550    0.0000 C   0  0  0  0  0  0  0  0  0  0  0  0
    8.9282    3.1550    0.0000 C   0  0  0  0  0  0  0  0  0  0  0  0
    9.7942    3.6550    0.0000 C   0  0  0  0  0  0  0  0  0  0  0  0
    9.7942    4.6550    0.0000 C   0  0  0  0  0  0  0  0  0  0  0  0
   10.6603    5.1550    0.0000 C   0  0  0  0  0  0  0  0  0  0  0  0
    4.5981   -5.9650    0.0000 H   0  0  0  0  0  0  0  0  0  0  0  0
    2.8660   -5.9650    0.0000 H   0  0  0  0  0  0  0  0  0  0  0  0
    3.3335   -6.3200    0.0000 H   0  0  0  0  0  0  0  0  0  0  0  0
    4.1306   -6.3200    0.0000 H   0  0  0  0  0  0  0  0  0  0  0  0
    5.1350   -4.6550    0.0000 H   0  0  0  0  0  0  0  0  0  0  0  0
    2.8660   -3.7250    0.0000 H   0  0  0  0  0  0  0  0  0  0  0  0
    6.0010   -3.1550    0.0000 H   0  0  0  0  0  0  0  0  0  0  0  0
    6.5422   -2.9276    0.0000 H   0  0  0  0  0  0  0  0  0  0  0  0
    6.9407   -2.2373    0.0000 H   0  0  0  0  0  0  0  0  0  0  0  0
    6.1181   -0.7624    0.0000 H   0  0  0  0  0  0  0  0  0  0  0  0
    5.7196   -1.4527    0.0000 H   0  0  0  0  0  0  0  0  0  0  0  0
    7.4082   -1.4276    0.0000 H   0  0  0  0  0  0  0  0  0  0  0  0
    7.8067   -0.7373    0.0000 H   0  0  0  0  0  0  0  0  0  0  0  0
    2.3100   -3.3081    0.0000 H   0  0  0  0  0  0  0  0  0  0  0  0
    1.4631   -3.5350    0.0000 H   0  0  0  0  0  0  0  0  0  0  0  0
    1.6900   -4.3819    0.0000 H   0  0  0  0  0  0  0  0  0  0  0  0
    6.9841    0.7376    0.0000 H   0  0  0  0  0  0  0  0  0  0  0  0
    6.5856    0.0473    0.0000 H   0  0  0  0  0  0  0  0  0  0  0  0
    8.2742    0.0724    0.0000 H   0  0  0  0  0  0  0  0  0  0  0  0
    8.6728    0.7627    0.0000 H   0  0  0  0  0  0  0  0  0  0  0  0
    4.9081   -1.8081    0.0000 H   0  0  0  0  0  0  0  0  0  0  0  0
    4.0611   -2.0350    0.0000 H   0  0  0  0  0  0  0  0  0  0  0  0
    4.2881   -2.8819    0.0000 H   0  0  0  0  0  0  0  0  0  0  0  0
    5.4641   -6.4650    0.0000 H   0  0  0  0  0  0  0  0  0  0  0  0
    2.0000   -6.4650    0.0000 H   0  0  0  0  0  0  0  0  0  0  0  0
    7.8501    2.2376    0.0000 H   0  0  0  0  0  0  0  0  0  0  0  0
    7.4516    1.5473    0.0000 H   0  0  0  0  0  0  0  0  0  0  0  0
    9.1403    1.5724    0.0000 H   0  0  0  0  0  0  0  0  0  0  0  0
    9.5388    2.2627    0.0000 H   0  0  0  0  0  0  0  0  0  0  0  0
    8.7162    3.7376    0.0000 H   0  0  0  0  0  0  0  0  0  0  0  0
    8.3176    3.0473    0.0000 H   0  0  0  0  0  0  0  0  0  0  0  0
    9.5822    5.2376    0.0000 H   0  0  0  0  0  0  0  0  0  0  0  0
    9.1836    4.5473    0.0000 H   0  0  0  0  0  0  0  0  0  0  0  0
   11.1972    6.4650    0.0000 H   0  0  0  0  0  0  0  0  0  0  0  0
  1 11  1  0  0  0  0
  1 12  1  0  0  0  0
 11  2  1  1  0  0  0
 13  2  1  6  0  0  0
  8  3  1  6  0  0  0
  3 50  1  0  0  0  0
  9  4  1  1  0  0  0
  4 51  1  0  0  0  0
  5 24  2  0  0  0  0
  6 26  1  0  0  0  0
  6 60  1  0  0  0  0
  7 26  2  0  0  0  0
  8 10  1  0  0  0  0
  8 11  1  0  0  0  0
  8 27  1  0  0  0  0
  9 10  1  0  0  0  0
  9 12  1  0  0  0  0
  9 28  1  0  0  0  0
 10 29  1  0  0  0  0
 10 30  1  0  0  0  0
 11 31  1  0  0  0  0
 12 17  1  6  0  0  0
 12 32  1  0  0  0  0
 13 14  1  0  0  0  0
 13 20  1  0  0  0  0
 13 33  1  0  0  0  0
 14 15  1  0  0  0  0
 14 34  1  0  0  0  0
 14 35  1  0  0  0  0
 15 16  1  0  0  0  0
 15 36  1  0  0  0  0
 15 37  1  0  0  0  0
 16 18  1  0  0  0  0
 16 38  1  0  0  0  0
 16 39  1  0  0  0  0
 17 40  1  0  0  0  0
 17 41  1  0  0  0  0
 17 42  1  0  0  0  0
 18 19  1  0  0  0  0
 18 43  1  0  0  0  0
 18 44  1  0  0  0  0
 19 21  1  0  0  0  0
 19 45  1  0  0  0  0
 19 46  1  0  0  0  0
 20 47  1  0  0  0  0
 20 48  1  0  0  0  0
 20 49  1  0  0  0  0
 21 22  1  0  0  0  0
 21 52  1  0  0  0  0
 21 53  1  0  0  0  0
 22 23  1  0  0  0  0
 22 54  1  0  0  0  0
 22 55  1  0  0  0  0
 23 24  1  0  0  0  0
 23 56  1  0  0  0  0
 23 57  1  0  0  0  0
 24 25  1  0  0  0  0
 25 26  1  0  0  0  0
 25 58  1  0  0  0  0
 25 59  1  0  0  0  0
M  END
> <PUBCHEM_COMPOUND_CID>
132282265

> <PUBCHEM_COMPOUND_CANONICALIZED>
1

> <PUBCHEM_CACTVS_COMPLEXITY>
426

> <PUBCHEM_CACTVS_HBOND_ACCEPTOR>
7

> <PUBCHEM_CACTVS_HBOND_DONOR>
3

> <PUBCHEM_CACTVS_ROTATABLE_BOND>
13

> <PUBCHEM_CACTVS_SUBSKEYS>
AAADcfB4OAAAAAAAAAAAAAAAAAAAAAAAAAAkAAAAAAAAAAAAAAAAGgAACAAACBSwgAMCCAAABgAIAICQCAAAAAAAAAAAAAEAAAAREBYIAAAiQAAFIAAHAAHI6KyAAAAAAAAAAAAAAAAAAAAAAAAAAAAAAA==

> <PUBCHEM_IUPAC_OPENEYE_NAME>
(12R)-12-[(2R,3R,5R,6S)-3,5-dihydroxy-6-methyl-tetrahydropyran-2-yl]oxy-3-oxo-tridecanoic acid

> <PUBCHEM_IUPAC_CAS_NAME>
(12R)-12-[[(2R,3R,5R,6S)-3,5-dihydroxy-6-methyl-2-oxanyl]oxy]-3-oxotridecanoic acid

> <PUBCHEM_IUPAC_NAME_MARKUP>
(12<I>R</I>)-12-[(2<I>R</I>,3<I>R</I>,5<I>R</I>,6<I>S</I>)-3,5-dihydroxy-6-methyloxan-2-yl]oxy-3-oxotridecanoic acid

> <PUBCHEM_IUPAC_NAME>
(12R)-12-[(2R,3R,5R,6S)-3,5-dihydroxy-6-methyloxan-2-yl]oxy-3-oxotridecanoic acid

> <PUBCHEM_IUPAC_SYSTEMATIC_NAME>
(12R)-12-[(2R,3R,5R,6S)-6-methyl-3,5-bis(oxidanyl)oxan-2-yl]oxy-3-oxidanylidene-tridecanoic acid

> <PUBCHEM_IUPAC_TRADITIONAL_NAME>
(12R)-12-[(2R,3R,5R,6S)-3,5-dihydroxy-6-methyl-tetrahydropyran-2-yl]oxy-3-keto-tridecanoic acid

> <PUBCHEM_IUPAC_INCHI>
InChI=1S/C19H34O7/c1-13(25-19-17(22)12-16(21)14(2)26-19)9-7-5-3-4-6-8-10-15(20)11-18(23)24/h13-14,16-17,19,21-22H,3-12H2,1-2H3,(H,23,24)/t13-,14+,16-,17-,19-/m1/s1

> <PUBCHEM_IUPAC_INCHIKEY>
YOLPWJUPZXRYNQ-UGEIDEBPSA-N

> <PUBCHEM_XLOGP3_AA>
2.4

> <PUBCHEM_EXACT_MASS>
374.23045342

> <PUBCHEM_MOLECULAR_FORMULA>
C19H34O7

> <PUBCHEM_MOLECULAR_WEIGHT>
374.5

> <PUBCHEM_OPENEYE_CAN_SMILES>
CC1C(CC(C(O1)OC(C)CCCCCCCCC(=O)CC(=O)O)O)O

> <PUBCHEM_OPENEYE_ISO_SMILES>
C[C@H]1[C@@H](C[C@H]([C@@H](O1)O[C@H](C)CCCCCCCCC(=O)CC(=O)O)O)O

> <PUBCHEM_CACTVS_TPSA>
113

> <PUBCHEM_MONOISOTOPIC_WEIGHT>
374.23045342

> <PUBCHEM_TOTAL_CHARGE>
0

> <PUBCHEM_HEAVY_ATOM_COUNT>
26

> <PUBCHEM_ATOM_DEF_STEREO_COUNT>
5

> <PUBCHEM_ATOM_UDEF_STEREO_COUNT>
0

> <PUBCHEM_BOND_DEF_STEREO_COUNT>
0

> <PUBCHEM_BOND_UDEF_STEREO_COUNT>
0

> <PUBCHEM_ISOTOPIC_ATOM_COUNT>
0

> <PUBCHEM_COMPONENT_COUNT>
1

> <PUBCHEM_CACTVS_TAUTO_COUNT>
-1

> <PUBCHEM_COORDINATE_TYPE>
1
5
255

> <PUBCHEM_BONDANNOTATIONS>
12  17  6
11  2  5
13  2  6
8  3  6
9  4  5

$$$$
