 
  -OEChem-10192103442D

 82 86  0     1  0  0  0  0  0999 V2000
    6.3301   -3.4285    0.0000 O   0  0  0  0  0  0  0  0  0  0  0  0
   14.1656    4.1173    0.0000 O   0  0  0  0  0  0  0  0  0  0  0  0
    4.5981   -5.4285    0.0000 O   0  0  0  0  0  0  0  0  0  0  0  0
    6.3301   -6.4285    0.0000 O   0  0  0  0  0  0  0  0  0  0  0  0
    8.0622   -3.4285    0.0000 O   0  0  0  0  0  0  0  0  0  0  0  0
    8.0622   -5.4285    0.0000 O   0  0  0  0  0  0  0  0  0  0  0  0
   13.3092    6.6206    0.0000 O   0  0  0  0  0  0  0  0  0  0  0  0
   11.5733    5.6273    0.0000 O   0  0  0  0  0  0  0  0  0  0  0  0
   13.2938    2.6206    0.0000 O   0  0  0  0  0  0  0  0  0  0  0  0
   11.5656    3.6273    0.0000 O   0  0  0  0  0  0  0  0  0  0  0  0
    3.7320   -3.9285    0.0000 O   0  0  0  0  0  0  0  0  0  0  0  0
   15.9015    5.1106    0.0000 O   0  0  0  0  0  0  0  0  0  0  0  0
    9.8181   -0.3660    0.0000 O   0  0  0  0  0  0  0  0  0  0  0  0
    5.4641   -6.9285    0.0000 O   0  0  0  0  0  0  0  0  0  0  0  0
    6.3159   -0.3494    0.0000 O   0  0  0  0  0  0  0  0  0  0  0  0
    2.8660   -2.4285    0.0000 O   0  0  0  0  0  0  0  0  0  0  0  0
    7.2259    1.1440    0.0000 O   0  0  0  0  0  0  0  0  0  0  0  0
    5.4641   -4.9285    0.0000 C   0  0  1  0  0  0  0  0  0  0  0  0
    6.3301   -5.4285    0.0000 C   0  0  2  0  0  0  0  0  0  0  0  0
    5.4641   -3.9285    0.0000 C   0  0  1  0  0  0  0  0  0  0  0  0
    7.1962   -4.9285    0.0000 C   0  0  2  0  0  0  0  0  0  0  0  0
    7.1962   -3.9285    0.0000 C   0  0  1  0  0  0  0  0  0  0  0  0
   13.3053    5.6206    0.0000 C   0  0  1  0  0  0  0  0  0  0  0  0
   12.4374    5.1239    0.0000 C   0  0  2  0  0  0  0  0  0  0  0  0
   14.1694    5.1173    0.0000 C   0  0  1  0  0  0  0  0  0  0  0  0
   12.4335    4.1239    0.0000 C   0  0  2  0  0  0  0  0  0  0  0  0
   13.2976    3.6206    0.0000 C   0  0  1  0  0  0  0  0  0  0  0  0
    4.5981   -3.4285    0.0000 C   0  0  0  0  0  0  0  0  0  0  0  0
   15.0374    5.6139    0.0000 C   0  0  0  0  0  0  0  0  0  0  0  0
    8.0622   -2.4285    0.0000 C   0  0  0  0  0  0  0  0  0  0  0  0
    4.5981   -6.4285    0.0000 C   0  0  0  0  0  0  0  0  0  0  0  0
   12.4258    2.1240    0.0000 C   0  0  0  0  0  0  0  0  0  0  0  0
    8.9622   -1.9042    0.0000 C   0  0  0  0  0  0  0  0  0  0  0  0
    7.1621   -1.9042    0.0000 C   0  0  0  0  0  0  0  0  0  0  0  0
    2.8660   -3.4285    0.0000 C   0  0  0  0  0  0  0  0  0  0  0  0
    3.7320   -6.9285    0.0000 C   0  0  0  0  0  0  0  0  0  0  0  0
    8.9502   -0.8627    0.0000 C   0  0  0  0  0  0  0  0  0  0  0  0
    8.0861   -0.3593    0.0000 C   0  0  0  0  0  0  0  0  0  0  0  0
   11.5617    2.6273    0.0000 C   0  0  0  0  0  0  0  0  0  0  0  0
   12.4220    1.1240    0.0000 C   0  0  0  0  0  0  0  0  0  0  0  0
    7.1742   -0.8627    0.0000 C   0  0  0  0  0  0  0  0  0  0  0  0
   10.6899    1.1306    0.0000 C   0  0  0  0  0  0  0  0  0  0  0  0
    9.8220    0.6340    0.0000 C   0  0  0  0  0  0  0  0  0  0  0  0
   10.6938    2.1306    0.0000 C   0  0  0  0  0  0  0  0  0  0  0  0
   11.5540    0.6273    0.0000 C   0  0  0  0  0  0  0  0  0  0  0  0
    8.0900    0.6407    0.0000 C   0  0  0  0  0  0  0  0  0  0  0  0
    2.0000   -3.9285    0.0000 C   0  0  0  0  0  0  0  0  0  0  0  0
    8.9579    1.1373    0.0000 C   0  0  0  0  0  0  0  0  0  0  0  0
    5.4641   -5.5485    0.0000 H   0  0  0  0  0  0  0  0  0  0  0  0
    5.7932   -5.7385    0.0000 H   0  0  0  0  0  0  0  0  0  0  0  0
    5.4641   -3.3085    0.0000 H   0  0  0  0  0  0  0  0  0  0  0  0
    7.1962   -5.5485    0.0000 H   0  0  0  0  0  0  0  0  0  0  0  0
    7.7331   -4.2385    0.0000 H   0  0  0  0  0  0  0  0  0  0  0  0
   12.7696    5.9327    0.0000 H   0  0  0  0  0  0  0  0  0  0  0  0
   12.4398    5.7439    0.0000 H   0  0  0  0  0  0  0  0  0  0  0  0
   14.7052    4.8052    0.0000 H   0  0  0  0  0  0  0  0  0  0  0  0
   11.8978    4.4360    0.0000 H   0  0  0  0  0  0  0  0  0  0  0  0
   12.7595    3.3127    0.0000 H   0  0  0  0  0  0  0  0  0  0  0  0
    4.9966   -2.9536    0.0000 H   0  0  0  0  0  0  0  0  0  0  0  0
    4.1996   -2.9536    0.0000 H   0  0  0  0  0  0  0  0  0  0  0  0
   15.4377    6.0873    0.0000 H   0  0  0  0  0  0  0  0  0  0  0  0
   14.6407    6.0904    0.0000 H   0  0  0  0  0  0  0  0  0  0  0  0
    6.8671   -6.7385    0.0000 H   0  0  0  0  0  0  0  0  0  0  0  0
    8.5991   -5.1185    0.0000 H   0  0  0  0  0  0  0  0  0  0  0  0
   13.8473    6.9285    0.0000 H   0  0  0  0  0  0  0  0  0  0  0  0
   11.5757    6.2473    0.0000 H   0  0  0  0  0  0  0  0  0  0  0  0
   11.0299    3.9394    0.0000 H   0  0  0  0  0  0  0  0  0  0  0  0
   16.4396    5.4185    0.0000 H   0  0  0  0  0  0  0  0  0  0  0  0
    9.5016   -2.2101    0.0000 H   0  0  0  0  0  0  0  0  0  0  0  0
    6.6228   -2.2101    0.0000 H   0  0  0  0  0  0  0  0  0  0  0  0
    3.4220   -6.3916    0.0000 H   0  0  0  0  0  0  0  0  0  0  0  0
    3.1951   -7.2385    0.0000 H   0  0  0  0  0  0  0  0  0  0  0  0
    4.0420   -7.4654    0.0000 H   0  0  0  0  0  0  0  0  0  0  0  0
   11.5641    3.2473    0.0000 H   0  0  0  0  0  0  0  0  0  0  0  0
   12.9577    0.8119    0.0000 H   0  0  0  0  0  0  0  0  0  0  0  0
   10.1581    2.4427    0.0000 H   0  0  0  0  0  0  0  0  0  0  0  0
   11.5516    0.0073    0.0000 H   0  0  0  0  0  0  0  0  0  0  0  0
    1.6900   -3.3916    0.0000 H   0  0  0  0  0  0  0  0  0  0  0  0
    1.4631   -4.2385    0.0000 H   0  0  0  0  0  0  0  0  0  0  0  0
    2.3100   -4.4654    0.0000 H   0  0  0  0  0  0  0  0  0  0  0  0
    8.9603    1.7573    0.0000 H   0  0  0  0  0  0  0  0  0  0  0  0
    5.7743   -0.6511    0.0000 H   0  0  0  0  0  0  0  0  0  0  0  0
  1 20  1  0  0  0  0
  1 22  1  0  0  0  0
  2 25  1  0  0  0  0
  2 27  1  0  0  0  0
 18  3  1  6  0  0  0
  3 31  1  0  0  0  0
 19  4  1  6  0  0  0
  4 63  1  0  0  0  0
 22  5  1  1  0  0  0
  5 30  1  0  0  0  0
 21  6  1  6  0  0  0
  6 64  1  0  0  0  0
 23  7  1  6  0  0  0
  7 65  1  0  0  0  0
 24  8  1  6  0  0  0
  8 66  1  0  0  0  0
 27  9  1  1  0  0  0
  9 32  1  0  0  0  0
 26 10  1  6  0  0  0
 10 67  1  0  0  0  0
 11 28  1  0  0  0  0
 11 35  1  0  0  0  0
 12 29  1  0  0  0  0
 12 68  1  0  0  0  0
 13 37  1  0  0  0  0
 13 43  1  0  0  0  0
 14 31  2  0  0  0  0
 15 41  1  0  0  0  0
 15 82  1  0  0  0  0
 16 35  2  0  0  0  0
 17 46  2  0  0  0  0
 18 19  1  0  0  0  0
 18 20  1  0  0  0  0
 18 49  1  0  0  0  0
 19 21  1  0  0  0  0
 19 50  1  0  0  0  0
 20 28  1  1  0  0  0
 20 51  1  0  0  0  0
 21 22  1  0  0  0  0
 21 52  1  0  0  0  0
 22 53  1  0  0  0  0
 23 24  1  0  0  0  0
 23 25  1  0  0  0  0
 23 54  1  0  0  0  0
 24 26  1  0  0  0  0
 24 55  1  0  0  0  0
 25 29  1  1  0  0  0
 25 56  1  0  0  0  0
 26 27  1  0  0  0  0
 26 57  1  0  0  0  0
 27 58  1  0  0  0  0
 28 59  1  0  0  0  0
 28 60  1  0  0  0  0
 29 61  1  0  0  0  0
 29 62  1  0  0  0  0
 30 33  1  0  0  0  0
 30 34  2  0  0  0  0
 31 36  1  0  0  0  0
 32 39  2  0  0  0  0
 32 40  1  0  0  0  0
 33 37  2  0  0  0  0
 33 69  1  0  0  0  0
 34 41  1  0  0  0  0
 34 70  1  0  0  0  0
 35 47  1  0  0  0  0
 36 71  1  0  0  0  0
 36 72  1  0  0  0  0
 36 73  1  0  0  0  0
 37 38  1  0  0  0  0
 38 41  2  0  0  0  0
 38 46  1  0  0  0  0
 39 44  1  0  0  0  0
 39 74  1  0  0  0  0
 40 45  2  0  0  0  0
 40 75  1  0  0  0  0
 42 43  1  0  0  0  0
 42 44  2  0  0  0  0
 42 45  1  0  0  0  0
 43 48  2  0  0  0  0
 44 76  1  0  0  0  0
 45 77  1  0  0  0  0
 46 48  1  0  0  0  0
 47 78  1  0  0  0  0
 47 79  1  0  0  0  0
 47 80  1  0  0  0  0
 48 81  1  0  0  0  0
M  END
> <PUBCHEM_COMPOUND_CID>
21721987

> <PUBCHEM_COMPOUND_CANONICALIZED>
1

> <PUBCHEM_CACTVS_COMPLEXITY>
1170

> <PUBCHEM_CACTVS_HBOND_ACCEPTOR>
17

> <PUBCHEM_CACTVS_HBOND_DONOR>
7

> <PUBCHEM_CACTVS_ROTATABLE_BOND>
11

> <PUBCHEM_CACTVS_SUBSKEYS>
AAADcfB4PgAAAAAAAAAAAAAAAAAAAAAAAAA0aIECAAAAAACBQAAAGgAACAAADBSwmAMyDoAABgCIAqDSCAACCAAkIAAIiAEGCMgdNzaGNRqieWCl4BUPuQfI7KzOIAAACAAIAABAAAAQABAAAAAAAAAAAA==

> <PUBCHEM_IUPAC_OPENEYE_NAME>
[(2R,3S,4S,5R,6S)-3-acetoxy-4,5-dihydroxy-6-[5-hydroxy-4-oxo-2-[4-[(2S,3R,4R,5S,6R)-3,4,5-trihydroxy-6-(hydroxymethyl)tetrahydropyran-2-yl]oxyphenyl]chromen-7-yl]oxy-tetrahydropyran-2-yl]methyl acetate

> <PUBCHEM_IUPAC_CAS_NAME>
acetic acid [(2R,3S,4S,5R,6S)-3-acetyloxy-4,5-dihydroxy-6-[[5-hydroxy-4-oxo-2-[4-[[(2S,3R,4R,5S,6R)-3,4,5-trihydroxy-6-(hydroxymethyl)-2-oxanyl]oxy]phenyl]-1-benzopyran-7-yl]oxy]-2-oxanyl]methyl ester

> <PUBCHEM_IUPAC_NAME_MARKUP>
[(2<I>R</I>,3<I>S</I>,4<I>S</I>,5<I>R</I>,6<I>S</I>)-3-acetyloxy-4,5-dihydroxy-6-[5-hydroxy-4-oxo-2-[4-[(2<I>S</I>,3<I>R</I>,4<I>R</I>,5<I>S</I>,6<I>R</I>)-3,4,5-trihydroxy-6-(hydroxymethyl)oxan-2-yl]oxyphenyl]chromen-7-yl]oxyoxan-2-yl]methyl acetate

> <PUBCHEM_IUPAC_NAME>
[(2R,3S,4S,5R,6S)-3-acetyloxy-4,5-dihydroxy-6-[5-hydroxy-4-oxo-2-[4-[(2S,3R,4R,5S,6R)-3,4,5-trihydroxy-6-(hydroxymethyl)oxan-2-yl]oxyphenyl]chromen-7-yl]oxyoxan-2-yl]methyl acetate

> <PUBCHEM_IUPAC_SYSTEMATIC_NAME>
[(2R,3S,4S,5R,6S)-3-acetyloxy-6-[2-[4-[(2S,3R,4R,5S,6R)-6-(hydroxymethyl)-3,4,5-tris(oxidanyl)oxan-2-yl]oxyphenyl]-5-oxidanyl-4-oxidanylidene-chromen-7-yl]oxy-4,5-bis(oxidanyl)oxan-2-yl]methyl ethanoate

> <PUBCHEM_IUPAC_TRADITIONAL_NAME>
acetic acid [(2R,3S,4S,5R,6S)-3-acetoxy-4,5-dihydroxy-6-[5-hydroxy-4-keto-2-[4-[(2S,3R,4R,5S,6R)-3,4,5-trihydroxy-6-methylol-tetrahydropyran-2-yl]oxyphenyl]chromen-7-yl]oxy-tetrahydropyran-2-yl]methyl ester

> <PUBCHEM_IUPAC_INCHI>
InChI=1S/C31H34O17/c1-12(33)42-11-22-29(43-13(2)34)26(39)28(41)31(48-22)45-16-7-17(35)23-18(36)9-19(46-20(23)8-16)14-3-5-15(6-4-14)44-30-27(40)25(38)24(37)21(10-32)47-30/h3-9,21-22,24-32,35,37-41H,10-11H2,1-2H3/t21-,22-,24-,25-,26+,27-,28-,29-,30-,31-/m1/s1

> <PUBCHEM_IUPAC_INCHIKEY>
JBQUODZYFWCFIH-MOFAGTPGSA-N

> <PUBCHEM_XLOGP3_AA>
-0.3

> <PUBCHEM_EXACT_MASS>
678.17959961

> <PUBCHEM_MOLECULAR_FORMULA>
C31H34O17

> <PUBCHEM_MOLECULAR_WEIGHT>
678.6

> <PUBCHEM_OPENEYE_CAN_SMILES>
CC(=O)OCC1C(C(C(C(O1)OC2=CC(=C3C(=C2)OC(=CC3=O)C4=CC=C(C=C4)OC5C(C(C(C(O5)CO)O)O)O)O)O)O)OC(=O)C

> <PUBCHEM_OPENEYE_ISO_SMILES>
CC(=O)OC[C@@H]1[C@H]([C@H]([C@H]([C@@H](O1)OC2=CC(=C3C(=C2)OC(=CC3=O)C4=CC=C(C=C4)O[C@H]5[C@@H]([C@@H]([C@@H]([C@H](O5)CO)O)O)O)O)O)O)OC(=O)C

> <PUBCHEM_CACTVS_TPSA>
257

> <PUBCHEM_MONOISOTOPIC_WEIGHT>
678.17959961

> <PUBCHEM_TOTAL_CHARGE>
0

> <PUBCHEM_HEAVY_ATOM_COUNT>
48

> <PUBCHEM_ATOM_DEF_STEREO_COUNT>
10

> <PUBCHEM_ATOM_UDEF_STEREO_COUNT>
0

> <PUBCHEM_BOND_DEF_STEREO_COUNT>
0

> <PUBCHEM_BOND_UDEF_STEREO_COUNT>
0

> <PUBCHEM_ISOTOPIC_ATOM_COUNT>
0

> <PUBCHEM_COMPONENT_COUNT>
1

> <PUBCHEM_CACTVS_TAUTO_COUNT>
-1

> <PUBCHEM_COORDINATE_TYPE>
1
5
255

> <PUBCHEM_BONDANNOTATIONS>
26  10  6
13  37  8
13  43  8
20  28  5
25  29  5
18  3  6
30  33  8
30  34  8
32  39  8
32  40  8
33  37  8
34  41  8
37  38  8
38  41  8
38  46  8
39  44  8
19  4  6
40  45  8
42  44  8
42  45  8
43  48  8
46  48  8
22  5  5
21  6  6
23  7  6
24  8  6
27  9  5

$$$$
