 
  -OEChem-10192103342D

 73 72  0     1  0  0  0  0  0999 V2000
    6.8671   -3.8450    0.0000 P   0  0  3  0  0  0  0  0  0  0  0  0
   10.3312   -1.8450    0.0000 O   0  0  0  0  0  0  0  0  0  0  0  0
   10.3312   -3.8450    0.0000 O   0  0  0  0  0  0  0  0  0  0  0  0
    7.7331   -3.3450    0.0000 O   0  0  0  0  0  0  0  0  0  0  0  0
    9.4651   -0.3450    0.0000 O   0  0  0  0  0  0  0  0  0  0  0  0
    6.0010   -4.3450    0.0000 O   0  0  0  0  0  0  0  0  0  0  0  0
   11.1972   -2.3450    0.0000 O   0  0  0  0  0  0  0  0  0  0  0  0
    6.3671   -2.9790    0.0000 O   0  0  0  0  0  0  0  0  0  0  0  0
    7.3671   -4.7110    0.0000 O   0  0  0  0  0  0  0  0  0  0  0  0
    4.2690   -5.3450    0.0000 O   0  0  0  0  0  0  0  0  0  0  0  0
    2.5369   -4.3450    0.0000 O   0  0  0  0  0  0  0  0  0  0  0  0
   12.0632    2.1550    0.0000 C   0  0  0  0  0  0  0  0  0  0  0  0
   12.9292    2.6550    0.0000 C   0  0  0  0  0  0  0  0  0  0  0  0
   12.0632    1.1550    0.0000 C   0  0  0  0  0  0  0  0  0  0  0  0
   12.9292    3.6550    0.0000 C   0  0  0  0  0  0  0  0  0  0  0  0
   11.1972    0.6550    0.0000 C   0  0  0  0  0  0  0  0  0  0  0  0
   13.7953    4.1550    0.0000 C   0  0  0  0  0  0  0  0  0  0  0  0
   11.1972   -0.3450    0.0000 C   0  0  0  0  0  0  0  0  0  0  0  0
   13.7953    5.1550    0.0000 C   0  0  0  0  0  0  0  0  0  0  0  0
    9.4651   -3.3450    0.0000 C   0  0  2  0  0  0  0  0  0  0  0  0
   10.3312   -0.8450    0.0000 C   0  0  0  0  0  0  0  0  0  0  0  0
   14.6613    5.6550    0.0000 C   0  0  0  0  0  0  0  0  0  0  0  0
    9.4651   -2.3450    0.0000 C   0  0  0  0  0  0  0  0  0  0  0  0
    8.5991   -3.8450    0.0000 C   0  0  0  0  0  0  0  0  0  0  0  0
   12.0632   -3.8450    0.0000 C   0  0  0  0  0  0  0  0  0  0  0  0
   12.9292   -3.3450    0.0000 C   0  0  0  0  0  0  0  0  0  0  0  0
   11.1972   -3.3450    0.0000 C   0  0  0  0  0  0  0  0  0  0  0  0
   13.7953   -3.8450    0.0000 C   0  0  0  0  0  0  0  0  0  0  0  0
   14.6613   -3.3450    0.0000 C   0  0  0  0  0  0  0  0  0  0  0  0
    5.1350   -3.8450    0.0000 C   0  0  0  0  0  0  0  0  0  0  0  0
    4.2690   -4.3450    0.0000 C   0  0  2  0  0  0  0  0  0  0  0  0
    3.4030   -3.8450    0.0000 C   0  0  0  0  0  0  0  0  0  0  0  0
   11.8512    2.7376    0.0000 H   0  0  0  0  0  0  0  0  0  0  0  0
   11.4526    2.0473    0.0000 H   0  0  0  0  0  0  0  0  0  0  0  0
   13.1413    2.0724    0.0000 H   0  0  0  0  0  0  0  0  0  0  0  0
   13.5398    2.7627    0.0000 H   0  0  0  0  0  0  0  0  0  0  0  0
   12.2753    0.5724    0.0000 H   0  0  0  0  0  0  0  0  0  0  0  0
   12.6738    1.2627    0.0000 H   0  0  0  0  0  0  0  0  0  0  0  0
   12.7172    4.2376    0.0000 H   0  0  0  0  0  0  0  0  0  0  0  0
   12.3187    3.5473    0.0000 H   0  0  0  0  0  0  0  0  0  0  0  0
   10.9851    1.2376    0.0000 H   0  0  0  0  0  0  0  0  0  0  0  0
   10.5866    0.5473    0.0000 H   0  0  0  0  0  0  0  0  0  0  0  0
   14.0073    3.5724    0.0000 H   0  0  0  0  0  0  0  0  0  0  0  0
   14.4058    4.2627    0.0000 H   0  0  0  0  0  0  0  0  0  0  0  0
   11.4092   -0.9276    0.0000 H   0  0  0  0  0  0  0  0  0  0  0  0
   11.8078   -0.2373    0.0000 H   0  0  0  0  0  0  0  0  0  0  0  0
   13.5832    5.7376    0.0000 H   0  0  0  0  0  0  0  0  0  0  0  0
   13.1847    5.0473    0.0000 H   0  0  0  0  0  0  0  0  0  0  0  0
   10.0021   -3.0350    0.0000 H   0  0  0  0  0  0  0  0  0  0  0  0
   14.9713    5.1181    0.0000 H   0  0  0  0  0  0  0  0  0  0  0  0
   15.1982    5.9650    0.0000 H   0  0  0  0  0  0  0  0  0  0  0  0
   14.3513    6.1919    0.0000 H   0  0  0  0  0  0  0  0  0  0  0  0
    9.2531   -1.7624    0.0000 H   0  0  0  0  0  0  0  0  0  0  0  0
    8.8546   -2.4527    0.0000 H   0  0  0  0  0  0  0  0  0  0  0  0
    8.2006   -4.3200    0.0000 H   0  0  0  0  0  0  0  0  0  0  0  0
    8.9976   -4.3200    0.0000 H   0  0  0  0  0  0  0  0  0  0  0  0
   11.6647   -4.3200    0.0000 H   0  0  0  0  0  0  0  0  0  0  0  0
   12.4617   -4.3200    0.0000 H   0  0  0  0  0  0  0  0  0  0  0  0
   13.3278   -2.8700    0.0000 H   0  0  0  0  0  0  0  0  0  0  0  0
   12.5307   -2.8700    0.0000 H   0  0  0  0  0  0  0  0  0  0  0  0
   13.3967   -4.3200    0.0000 H   0  0  0  0  0  0  0  0  0  0  0  0
   14.1938   -4.3200    0.0000 H   0  0  0  0  0  0  0  0  0  0  0  0
   14.9713   -3.8819    0.0000 H   0  0  0  0  0  0  0  0  0  0  0  0
   15.1982   -3.0350    0.0000 H   0  0  0  0  0  0  0  0  0  0  0  0
   14.3513   -2.8081    0.0000 H   0  0  0  0  0  0  0  0  0  0  0  0
    5.5335   -3.3700    0.0000 H   0  0  0  0  0  0  0  0  0  0  0  0
    4.7365   -3.3700    0.0000 H   0  0  0  0  0  0  0  0  0  0  0  0
    4.8059   -4.6550    0.0000 H   0  0  0  0  0  0  0  0  0  0  0  0
    3.8015   -3.3700    0.0000 H   0  0  0  0  0  0  0  0  0  0  0  0
    3.0044   -3.3700    0.0000 H   0  0  0  0  0  0  0  0  0  0  0  0
    6.6771   -2.4420    0.0000 H   0  0  0  0  0  0  0  0  0  0  0  0
    3.7320   -5.6550    0.0000 H   0  0  0  0  0  0  0  0  0  0  0  0
    2.0000   -4.0350    0.0000 H   0  0  0  0  0  0  0  0  0  0  0  0
  1  4  1  0  0  0  0
  1  6  1  0  0  0  0
  1  8  1  0  0  0  0
  1  9  2  0  0  0  0
  2 21  1  0  0  0  0
  2 23  1  0  0  0  0
 20  3  1  1  0  0  0
  3 27  1  0  0  0  0
  4 24  1  0  0  0  0
  5 21  2  0  0  0  0
  6 30  1  0  0  0  0
  7 27  2  0  0  0  0
  8 71  1  0  0  0  0
 31 10  1  1  0  0  0
 10 72  1  0  0  0  0
 11 32  1  0  0  0  0
 11 73  1  0  0  0  0
 12 13  1  0  0  0  0
 12 14  1  0  0  0  0
 12 33  1  0  0  0  0
 12 34  1  0  0  0  0
 13 15  1  0  0  0  0
 13 35  1  0  0  0  0
 13 36  1  0  0  0  0
 14 16  1  0  0  0  0
 14 37  1  0  0  0  0
 14 38  1  0  0  0  0
 15 17  1  0  0  0  0
 15 39  1  0  0  0  0
 15 40  1  0  0  0  0
 16 18  1  0  0  0  0
 16 41  1  0  0  0  0
 16 42  1  0  0  0  0
 17 19  1  0  0  0  0
 17 43  1  0  0  0  0
 17 44  1  0  0  0  0
 18 21  1  0  0  0  0
 18 45  1  0  0  0  0
 18 46  1  0  0  0  0
 19 22  1  0  0  0  0
 19 47  1  0  0  0  0
 19 48  1  0  0  0  0
 20 23  1  0  0  0  0
 20 24  1  0  0  0  0
 20 49  1  0  0  0  0
 22 50  1  0  0  0  0
 22 51  1  0  0  0  0
 22 52  1  0  0  0  0
 23 53  1  0  0  0  0
 23 54  1  0  0  0  0
 24 55  1  0  0  0  0
 24 56  1  0  0  0  0
 25 26  1  0  0  0  0
 25 27  1  0  0  0  0
 25 57  1  0  0  0  0
 25 58  1  0  0  0  0
 26 28  1  0  0  0  0
 26 59  1  0  0  0  0
 26 60  1  0  0  0  0
 28 29  1  0  0  0  0
 28 61  1  0  0  0  0
 28 62  1  0  0  0  0
 29 63  1  0  0  0  0
 29 64  1  0  0  0  0
 29 65  1  0  0  0  0
 30 31  1  0  0  0  0
 30 66  1  0  0  0  0
 30 67  1  0  0  0  0
 31 32  1  0  0  0  0
 31 68  1  0  0  0  0
 32 69  1  0  0  0  0
 32 70  1  0  0  0  0
M  END
> <PUBCHEM_COMPOUND_CID>
139593630

> <PUBCHEM_COMPOUND_CANONICALIZED>
1

> <PUBCHEM_CACTVS_COMPLEXITY>
543

> <PUBCHEM_CACTVS_HBOND_ACCEPTOR>
10

> <PUBCHEM_CACTVS_HBOND_DONOR>
3

> <PUBCHEM_CACTVS_ROTATABLE_BOND>
23

> <PUBCHEM_CACTVS_SUBSKEYS>
AAADcfB4PAIAAAAAAAAAAAAAAAAAAAAAAAAAAAAAAAAAAAAAAAAAGgAACCAACBSggAICCAAABxAIQACQCIAAAAAAAAAAAAEAAAABEBIAAAACQAAFAAADAAGIyKCAAAAAAAAAAAAAAAAAAAAAAAAAAAAAAA==

> <PUBCHEM_IUPAC_OPENEYE_NAME>
[(2R)-3-[[(2S)-2,3-dihydroxypropoxy]-hydroxy-phosphoryl]oxy-2-pentanoyloxy-propyl] decanoate

> <PUBCHEM_IUPAC_CAS_NAME>
decanoic acid [(2R)-3-[[(2S)-2,3-dihydroxypropoxy]-hydroxyphosphoryl]oxy-2-(1-oxopentoxy)propyl] ester

> <PUBCHEM_IUPAC_NAME_MARKUP>
[(2<I>R</I>)-3-[[(2<I>S</I>)-2,3-dihydroxypropoxy]-hydroxyphosphoryl]oxy-2-pentanoyloxypropyl] decanoate

> <PUBCHEM_IUPAC_NAME>
[(2R)-3-[[(2S)-2,3-dihydroxypropoxy]-hydroxyphosphoryl]oxy-2-pentanoyloxypropyl] decanoate

> <PUBCHEM_IUPAC_SYSTEMATIC_NAME>
[(2R)-3-[[(2S)-2,3-bis(oxidanyl)propoxy]-oxidanyl-phosphoryl]oxy-2-pentanoyloxy-propyl] decanoate

> <PUBCHEM_IUPAC_TRADITIONAL_NAME>
capric acid [(2R)-3-[[(2S)-2,3-dihydroxypropoxy]-hydroxy-phosphoryl]oxy-2-valeryloxy-propyl] ester

> <PUBCHEM_IUPAC_INCHI>
InChI=1S/C21H41O10P/c1-3-5-7-8-9-10-11-13-20(24)28-16-19(31-21(25)12-6-4-2)17-30-32(26,27)29-15-18(23)14-22/h18-19,22-23H,3-17H2,1-2H3,(H,26,27)/t18-,19+/m0/s1

> <PUBCHEM_IUPAC_INCHIKEY>
YPMQMUPNWYRKKR-RBUKOAKNSA-N

> <PUBCHEM_XLOGP3_AA>
3

> <PUBCHEM_EXACT_MASS>
484.24373450

> <PUBCHEM_MOLECULAR_FORMULA>
C21H41O10P

> <PUBCHEM_MOLECULAR_WEIGHT>
484.5

> <PUBCHEM_OPENEYE_CAN_SMILES>
CCCCCCCCCC(=O)OCC(COP(=O)(O)OCC(CO)O)OC(=O)CCCC

> <PUBCHEM_OPENEYE_ISO_SMILES>
CCCCCCCCCC(=O)OC[C@H](COP(=O)(O)OC[C@H](CO)O)OC(=O)CCCC

> <PUBCHEM_CACTVS_TPSA>
149

> <PUBCHEM_MONOISOTOPIC_WEIGHT>
484.24373450

> <PUBCHEM_TOTAL_CHARGE>
0

> <PUBCHEM_HEAVY_ATOM_COUNT>
32

> <PUBCHEM_ATOM_DEF_STEREO_COUNT>
2

> <PUBCHEM_ATOM_UDEF_STEREO_COUNT>
0

> <PUBCHEM_BOND_DEF_STEREO_COUNT>
0

> <PUBCHEM_BOND_UDEF_STEREO_COUNT>
0

> <PUBCHEM_ISOTOPIC_ATOM_COUNT>
0

> <PUBCHEM_COMPONENT_COUNT>
1

> <PUBCHEM_CACTVS_TAUTO_COUNT>
-1

> <PUBCHEM_COORDINATE_TYPE>
1
5
255

> <PUBCHEM_BONDANNOTATIONS>
31  10  5
20  3  5

$$$$
