 
  -OEChem-10192104142D

 42 41  0     0  0  0  0  0  0999 V2000
    2.5369    1.2500    0.0000 O   0  0  0  0  0  0  0  0  0  0  0  0
    3.4030   -0.2500    0.0000 O   0  0  0  0  0  0  0  0  0  0  0  0
   17.2594   -1.2500    0.0000 O   0  0  0  0  0  0  0  0  0  0  0  0
   16.3933    0.2500    0.0000 O   0  0  0  0  0  0  0  0  0  0  0  0
    6.8671    0.7500    0.0000 C   0  0  0  0  0  0  0  0  0  0  0  0
    6.0010    1.2500    0.0000 C   0  0  0  0  0  0  0  0  0  0  0  0
    7.7331    1.2500    0.0000 C   0  0  0  0  0  0  0  0  0  0  0  0
    5.1350    0.7500    0.0000 C   0  0  0  0  0  0  0  0  0  0  0  0
    8.5991    0.7500    0.0000 C   0  0  0  0  0  0  0  0  0  0  0  0
    4.2690    1.2500    0.0000 C   0  0  0  0  0  0  0  0  0  0  0  0
    9.4651    1.2500    0.0000 C   0  0  0  0  0  0  0  0  0  0  0  0
    3.4030    0.7500    0.0000 C   0  0  0  0  0  0  0  0  0  0  0  0
   10.3312    0.7500    0.0000 C   0  0  0  0  0  0  0  0  0  0  0  0
   14.6613   -0.7500    0.0000 C   0  0  0  0  0  0  0  0  0  0  0  0
   15.5273   -1.2500    0.0000 C   0  0  0  0  0  0  0  0  0  0  0  0
   13.7953   -1.2500    0.0000 C   0  0  0  0  0  0  0  0  0  0  0  0
   11.1972    0.2500    0.0000 C   0  0  0  0  0  0  0  0  0  0  0  0
   16.3933   -0.7500    0.0000 C   0  0  0  0  0  0  0  0  0  0  0  0
   12.9292   -0.7500    0.0000 C   0  0  0  0  0  0  0  0  0  0  0  0
   12.0632   -0.2500    0.0000 C   0  0  0  0  0  0  0  0  0  0  0  0
    6.4685    0.2751    0.0000 H   0  0  0  0  0  0  0  0  0  0  0  0
    7.2656    0.2751    0.0000 H   0  0  0  0  0  0  0  0  0  0  0  0
    6.3996    1.7250    0.0000 H   0  0  0  0  0  0  0  0  0  0  0  0
    5.6025    1.7250    0.0000 H   0  0  0  0  0  0  0  0  0  0  0  0
    8.1316    1.7250    0.0000 H   0  0  0  0  0  0  0  0  0  0  0  0
    7.3346    1.7250    0.0000 H   0  0  0  0  0  0  0  0  0  0  0  0
    4.7365    0.2751    0.0000 H   0  0  0  0  0  0  0  0  0  0  0  0
    5.5335    0.2751    0.0000 H   0  0  0  0  0  0  0  0  0  0  0  0
    8.2006    0.2751    0.0000 H   0  0  0  0  0  0  0  0  0  0  0  0
    8.9976    0.2751    0.0000 H   0  0  0  0  0  0  0  0  0  0  0  0
    4.6675    1.7250    0.0000 H   0  0  0  0  0  0  0  0  0  0  0  0
    3.8705    1.7250    0.0000 H   0  0  0  0  0  0  0  0  0  0  0  0
    9.8637    1.7250    0.0000 H   0  0  0  0  0  0  0  0  0  0  0  0
    9.0666    1.7250    0.0000 H   0  0  0  0  0  0  0  0  0  0  0  0
   15.0598   -0.2751    0.0000 H   0  0  0  0  0  0  0  0  0  0  0  0
   14.2628   -0.2751    0.0000 H   0  0  0  0  0  0  0  0  0  0  0  0
   15.1288   -1.7250    0.0000 H   0  0  0  0  0  0  0  0  0  0  0  0
   15.9258   -1.7250    0.0000 H   0  0  0  0  0  0  0  0  0  0  0  0
   13.3967   -1.7250    0.0000 H   0  0  0  0  0  0  0  0  0  0  0  0
   14.1938   -1.7250    0.0000 H   0  0  0  0  0  0  0  0  0  0  0  0
    2.0000    0.9400    0.0000 H   0  0  0  0  0  0  0  0  0  0  0  0
   17.7963   -0.9400    0.0000 H   0  0  0  0  0  0  0  0  0  0  0  0
  1 12  1  0  0  0  0
  1 41  1  0  0  0  0
  2 12  2  0  0  0  0
  3 18  1  0  0  0  0
  3 42  1  0  0  0  0
  4 18  2  0  0  0  0
  5  6  1  0  0  0  0
  5  7  1  0  0  0  0
  5 21  1  0  0  0  0
  5 22  1  0  0  0  0
  6  8  1  0  0  0  0
  6 23  1  0  0  0  0
  6 24  1  0  0  0  0
  7  9  1  0  0  0  0
  7 25  1  0  0  0  0
  7 26  1  0  0  0  0
  8 10  1  0  0  0  0
  8 27  1  0  0  0  0
  8 28  1  0  0  0  0
  9 11  1  0  0  0  0
  9 29  1  0  0  0  0
  9 30  1  0  0  0  0
 10 12  1  0  0  0  0
 10 31  1  0  0  0  0
 10 32  1  0  0  0  0
 11 13  1  0  0  0  0
 11 33  1  0  0  0  0
 11 34  1  0  0  0  0
 13 17  3  0  0  0  0
 14 15  1  0  0  0  0
 14 16  1  0  0  0  0
 14 35  1  0  0  0  0
 14 36  1  0  0  0  0
 15 18  1  0  0  0  0
 15 37  1  0  0  0  0
 15 38  1  0  0  0  0
 16 19  1  0  0  0  0
 16 39  1  0  0  0  0
 16 40  1  0  0  0  0
 17 20  1  0  0  0  0
 19 20  3  0  0  0  0
M  END
> <PUBCHEM_COMPOUND_CID>
88921627

> <PUBCHEM_COMPOUND_CANONICALIZED>
1

> <PUBCHEM_CACTVS_COMPLEXITY>
424

> <PUBCHEM_CACTVS_HBOND_ACCEPTOR>
4

> <PUBCHEM_CACTVS_HBOND_DONOR>
2

> <PUBCHEM_CACTVS_ROTATABLE_BOND>
11

> <PUBCHEM_CACTVS_SUBSKEYS>
AAADceB4OAAAAAAAAAAAAAAAAAAAAAAAAAAAAAAAAAAAAAAAAAAAGgAACAAACACAgAAACAAAAgBIEACQCAgAAAAAAAAAAAEAAAAAABIAAAAAQAAEAAAAAAGIyKCAAAAAAAAAAAAAAAAAAAAAAAAAAAAAAA==

> <PUBCHEM_IUPAC_OPENEYE_NAME>
hexadeca-5,7-diynedioic acid

> <PUBCHEM_IUPAC_CAS_NAME>
hexadeca-5,7-diynedioic acid

> <PUBCHEM_IUPAC_NAME_MARKUP>
hexadeca-5,7-diynedioic acid

> <PUBCHEM_IUPAC_NAME>
hexadeca-5,7-diynedioic acid

> <PUBCHEM_IUPAC_SYSTEMATIC_NAME>
hexadeca-5,7-diynedioic acid

> <PUBCHEM_IUPAC_TRADITIONAL_NAME>
hexadeca-5,7-diynedioic acid

> <PUBCHEM_IUPAC_INCHI>
InChI=1S/C16H22O4/c17-15(18)13-11-9-7-5-3-1-2-4-6-8-10-12-14-16(19)20/h1,3,5,7,9-14H2,(H,17,18)(H,19,20)

> <PUBCHEM_IUPAC_INCHIKEY>
RYCGKOAKIRHESH-UHFFFAOYSA-N

> <PUBCHEM_XLOGP3_AA>
3.5

> <PUBCHEM_EXACT_MASS>
278.15180918

> <PUBCHEM_MOLECULAR_FORMULA>
C16H22O4

> <PUBCHEM_MOLECULAR_WEIGHT>
278.34

> <PUBCHEM_OPENEYE_CAN_SMILES>
C(CCCC#CC#CCCCC(=O)O)CCCC(=O)O

> <PUBCHEM_OPENEYE_ISO_SMILES>
C(CCCC#CC#CCCCC(=O)O)CCCC(=O)O

> <PUBCHEM_CACTVS_TPSA>
74.6

> <PUBCHEM_MONOISOTOPIC_WEIGHT>
278.15180918

> <PUBCHEM_TOTAL_CHARGE>
0

> <PUBCHEM_HEAVY_ATOM_COUNT>
20

> <PUBCHEM_ATOM_DEF_STEREO_COUNT>
0

> <PUBCHEM_ATOM_UDEF_STEREO_COUNT>
0

> <PUBCHEM_BOND_DEF_STEREO_COUNT>
0

> <PUBCHEM_BOND_UDEF_STEREO_COUNT>
0

> <PUBCHEM_ISOTOPIC_ATOM_COUNT>
0

> <PUBCHEM_COMPONENT_COUNT>
1

> <PUBCHEM_CACTVS_TAUTO_COUNT>
-1

> <PUBCHEM_COORDINATE_TYPE>
1
5
255

$$$$
