 
  -OEChem-10192104032D

 48 50  0     0  0  0  0  0  0999 V2000
    8.6663    3.5173    0.0000 S   0  0  0  0  0  0  0  0  0  0  0  0
    6.0682   -3.9827    0.0000 O   0  0  0  0  0  0  0  0  0  0  0  0
    6.9343   -0.4827    0.0000 O   0  0  0  0  0  0  0  0  0  0  0  0
    9.6663    3.5173    0.0000 O   0  0  0  0  0  0  0  0  0  0  0  0
    7.6663    3.5173    0.0000 O   0  0  0  0  0  0  0  0  0  0  0  0
    2.5381   -4.0068    0.0000 O   0  0  0  0  0  0  0  0  0  0  0  0
    7.8003   -3.9827    0.0000 O   0  0  0  0  0  0  0  0  0  0  0  0
    6.0682    1.0173    0.0000 O   0  0  0  0  0  0  0  0  0  0  0  0
    8.6663    4.5173    0.0000 N   0  0  0  0  0  0  0  0  0  0  0  0
    5.2022   -2.4827    0.0000 C   0  0  0  0  0  0  0  0  0  0  0  0
    6.0682   -1.9827    0.0000 C   0  0  0  0  0  0  0  0  0  0  0  0
    5.2022   -3.4827    0.0000 C   0  0  0  0  0  0  0  0  0  0  0  0
    4.3083   -4.0174    0.0000 C   0  0  0  0  0  0  0  0  0  0  0  0
    8.6663    2.5173    0.0000 C   0  0  0  0  0  0  0  0  0  0  0  0
    6.0682   -0.9827    0.0000 C   0  0  0  0  0  0  0  0  0  0  0  0
    4.3083   -1.9480    0.0000 C   0  0  0  0  0  0  0  0  0  0  0  0
    3.4022   -3.5035    0.0000 C   0  0  0  0  0  0  0  0  0  0  0  0
    7.8003    2.0173    0.0000 C   0  0  0  0  0  0  0  0  0  0  0  0
    6.9343   -2.4827    0.0000 C   0  0  0  0  0  0  0  0  0  0  0  0
    7.8003    1.0173    0.0000 C   0  0  0  0  0  0  0  0  0  0  0  0
    3.4022   -2.4619    0.0000 C   0  0  0  0  0  0  0  0  0  0  0  0
    9.5323    2.0173    0.0000 C   0  0  0  0  0  0  0  0  0  0  0  0
    4.3198   -5.0173    0.0000 C   0  0  0  0  0  0  0  0  0  0  0  0
    6.9343   -3.4827    0.0000 C   0  0  0  0  0  0  0  0  0  0  0  0
    8.6663    0.5173    0.0000 C   0  0  0  0  0  0  0  0  0  0  0  0
    6.9343    0.5173    0.0000 C   0  0  0  0  0  0  0  0  0  0  0  0
    9.5323    1.0173    0.0000 C   0  0  0  0  0  0  0  0  0  0  0  0
    9.5323    5.0173    0.0000 C   0  0  0  0  0  0  0  0  0  0  0  0
    7.8003    5.0173    0.0000 C   0  0  0  0  0  0  0  0  0  0  0  0
    5.8562   -0.4001    0.0000 H   0  0  0  0  0  0  0  0  0  0  0  0
    5.4577   -1.0904    0.0000 H   0  0  0  0  0  0  0  0  0  0  0  0
    4.3154   -1.3281    0.0000 H   0  0  0  0  0  0  0  0  0  0  0  0
    7.2634    2.3273    0.0000 H   0  0  0  0  0  0  0  0  0  0  0  0
    7.4712   -2.1727    0.0000 H   0  0  0  0  0  0  0  0  0  0  0  0
    2.8665   -2.1498    0.0000 H   0  0  0  0  0  0  0  0  0  0  0  0
   10.0693    2.3273    0.0000 H   0  0  0  0  0  0  0  0  0  0  0  0
    3.6999   -5.0245    0.0000 H   0  0  0  0  0  0  0  0  0  0  0  0
    4.3270   -5.6373    0.0000 H   0  0  0  0  0  0  0  0  0  0  0  0
    4.9398   -5.0101    0.0000 H   0  0  0  0  0  0  0  0  0  0  0  0
    8.6663   -0.1027    0.0000 H   0  0  0  0  0  0  0  0  0  0  0  0
   10.0693    0.7073    0.0000 H   0  0  0  0  0  0  0  0  0  0  0  0
    9.8424    4.4804    0.0000 H   0  0  0  0  0  0  0  0  0  0  0  0
   10.0693    5.3273    0.0000 H   0  0  0  0  0  0  0  0  0  0  0  0
    9.2224    5.5542    0.0000 H   0  0  0  0  0  0  0  0  0  0  0  0
    8.1103    5.5542    0.0000 H   0  0  0  0  0  0  0  0  0  0  0  0
    7.2634    5.3273    0.0000 H   0  0  0  0  0  0  0  0  0  0  0  0
    7.4903    4.4804    0.0000 H   0  0  0  0  0  0  0  0  0  0  0  0
    2.0000   -3.6989    0.0000 H   0  0  0  0  0  0  0  0  0  0  0  0
  1  4  2  0  0  0  0
  1  5  2  0  0  0  0
  1  9  1  0  0  0  0
  1 14  1  0  0  0  0
  2 12  1  0  0  0  0
  2 24  1  0  0  0  0
  3 15  1  0  0  0  0
  3 26  1  0  0  0  0
  6 17  1  0  0  0  0
  6 48  1  0  0  0  0
  7 24  2  0  0  0  0
  8 26  2  0  0  0  0
  9 28  1  0  0  0  0
  9 29  1  0  0  0  0
 10 11  1  0  0  0  0
 10 12  2  0  0  0  0
 10 16  1  0  0  0  0
 11 15  1  0  0  0  0
 11 19  2  0  0  0  0
 12 13  1  0  0  0  0
 13 17  2  0  0  0  0
 13 23  1  0  0  0  0
 14 18  1  0  0  0  0
 14 22  2  0  0  0  0
 15 30  1  0  0  0  0
 15 31  1  0  0  0  0
 16 21  2  0  0  0  0
 16 32  1  0  0  0  0
 17 21  1  0  0  0  0
 18 20  2  0  0  0  0
 18 33  1  0  0  0  0
 19 24  1  0  0  0  0
 19 34  1  0  0  0  0
 20 25  1  0  0  0  0
 20 26  1  0  0  0  0
 21 35  1  0  0  0  0
 22 27  1  0  0  0  0
 22 36  1  0  0  0  0
 23 37  1  0  0  0  0
 23 38  1  0  0  0  0
 23 39  1  0  0  0  0
 25 27  2  0  0  0  0
 25 40  1  0  0  0  0
 27 41  1  0  0  0  0
 28 42  1  0  0  0  0
 28 43  1  0  0  0  0
 28 44  1  0  0  0  0
 29 45  1  0  0  0  0
 29 46  1  0  0  0  0
 29 47  1  0  0  0  0
M  END
> <PUBCHEM_COMPOUND_CID>
7960565

> <PUBCHEM_COMPOUND_CANONICALIZED>
1

> <PUBCHEM_CACTVS_COMPLEXITY>
770

> <PUBCHEM_CACTVS_HBOND_ACCEPTOR>
8

> <PUBCHEM_CACTVS_HBOND_DONOR>
1

> <PUBCHEM_CACTVS_ROTATABLE_BOND>
6

> <PUBCHEM_CACTVS_SUBSKEYS>
AAADceB6OABAAAAAAAAAAAAAAAAAAAAAAAAwYIAAAAAAAACBQAAAHgQASAAADASg2AYyD4IABgKIAiDSCHBCCBAkIAAIiBkOCMgMJzKGNRqCeyClwBUIuYfI6PyOIAACiAAIAABAAAUQABAAAAAAAAAAAA==

> <PUBCHEM_IUPAC_OPENEYE_NAME>
(7-hydroxy-8-methyl-2-oxo-chromen-4-yl)methyl 3-(dimethylsulfamoyl)benzoate

> <PUBCHEM_IUPAC_CAS_NAME>
3-(dimethylsulfamoyl)benzoic acid (7-hydroxy-8-methyl-2-oxo-1-benzopyran-4-yl)methyl ester

> <PUBCHEM_IUPAC_NAME_MARKUP>
(7-hydroxy-8-methyl-2-oxochromen-4-yl)methyl 3-(dimethylsulfamoyl)benzoate

> <PUBCHEM_IUPAC_NAME>
(7-hydroxy-8-methyl-2-oxochromen-4-yl)methyl 3-(dimethylsulfamoyl)benzoate

> <PUBCHEM_IUPAC_SYSTEMATIC_NAME>
(8-methyl-7-oxidanyl-2-oxidanylidene-chromen-4-yl)methyl 3-(dimethylsulfamoyl)benzoate

> <PUBCHEM_IUPAC_TRADITIONAL_NAME>
3-(dimethylsulfamoyl)benzoic acid (7-hydroxy-2-keto-8-methyl-chromen-4-yl)methyl ester

> <PUBCHEM_IUPAC_INCHI>
InChI=1S/C20H19NO7S/c1-12-17(22)8-7-16-14(10-18(23)28-19(12)16)11-27-20(24)13-5-4-6-15(9-13)29(25,26)21(2)3/h4-10,22H,11H2,1-3H3

> <PUBCHEM_IUPAC_INCHIKEY>
PEGCDXSAJXCWBH-UHFFFAOYSA-N

> <PUBCHEM_XLOGP3_AA>
2

> <PUBCHEM_EXACT_MASS>
417.08822312

> <PUBCHEM_MOLECULAR_FORMULA>
C20H19NO7S

> <PUBCHEM_MOLECULAR_WEIGHT>
417.4

> <PUBCHEM_OPENEYE_CAN_SMILES>
CC1=C(C=CC2=C1OC(=O)C=C2COC(=O)C3=CC(=CC=C3)S(=O)(=O)N(C)C)O

> <PUBCHEM_OPENEYE_ISO_SMILES>
CC1=C(C=CC2=C1OC(=O)C=C2COC(=O)C3=CC(=CC=C3)S(=O)(=O)N(C)C)O

> <PUBCHEM_CACTVS_TPSA>
119

> <PUBCHEM_MONOISOTOPIC_WEIGHT>
417.08822312

> <PUBCHEM_TOTAL_CHARGE>
0

> <PUBCHEM_HEAVY_ATOM_COUNT>
29

> <PUBCHEM_ATOM_DEF_STEREO_COUNT>
0

> <PUBCHEM_ATOM_UDEF_STEREO_COUNT>
0

> <PUBCHEM_BOND_DEF_STEREO_COUNT>
0

> <PUBCHEM_BOND_UDEF_STEREO_COUNT>
0

> <PUBCHEM_ISOTOPIC_ATOM_COUNT>
0

> <PUBCHEM_COMPONENT_COUNT>
1

> <PUBCHEM_CACTVS_TAUTO_COUNT>
-1

> <PUBCHEM_COORDINATE_TYPE>
1
5
255

> <PUBCHEM_BONDANNOTATIONS>
10  11  8
10  12  8
10  16  8
11  19  8
12  13  8
13  17  8
14  18  8
14  22  8
16  21  8
17  21  8
18  20  8
19  24  8
2  12  8
2  24  8
20  25  8
22  27  8
25  27  8

$$$$
