 
  -OEChem-10192103272D

 51 53  0     1  0  0  0  0  0999 V2000
    4.3660   -0.8660    0.0000 O   0  0  0  0  0  0  0  0  0  0  0  0
    9.2320   -2.0981    0.0000 O   0  0  0  0  0  0  0  0  0  0  0  0
    6.8660   -1.7320    0.0000 O   0  0  0  0  0  0  0  0  0  0  0  0
   12.2321    3.0981    0.0000 O   0  0  0  0  0  0  0  0  0  0  0  0
    6.8660    0.0000    0.0000 O   0  0  0  0  0  0  0  0  0  0  0  0
    9.8660    1.7320    0.0000 O   0  0  0  0  0  0  0  0  0  0  0  0
    8.8660    0.0000    0.0000 O   0  0  0  0  0  0  0  0  0  0  0  0
    2.8660    0.0000    0.0000 C   0  0  0  0  0  0  0  0  0  0  0  0
    2.0000   -0.5000    0.0000 C   0  0  0  0  0  0  0  0  0  0  0  0
    2.0000    0.5000    0.0000 C   0  0  0  0  0  0  0  0  0  0  0  0
    3.8660    0.0000    0.0000 C   0  0  0  0  0  0  0  0  0  0  0  0
    5.3660   -0.8660    0.0000 C   0  0  3  0  0  0  0  0  0  0  0  0
    8.3660   -2.5981    0.0000 C   0  0  3  0  0  0  0  0  0  0  0  0
    5.8660   -1.7320    0.0000 C   0  0  0  0  0  0  0  0  0  0  0  0
    5.8660    0.0000    0.0000 C   0  0  0  0  0  0  0  0  0  0  0  0
   11.3660    2.5981    0.0000 C   0  0  3  0  0  0  0  0  0  0  0  0
    9.2320   -3.0981    0.0000 C   0  0  0  0  0  0  0  0  0  0  0  0
    7.3660   -2.5981    0.0000 C   0  0  0  0  0  0  0  0  0  0  0  0
   12.2321    2.0981    0.0000 C   0  0  0  0  0  0  0  0  0  0  0  0
   10.3660    2.5981    0.0000 C   0  0  0  0  0  0  0  0  0  0  0  0
    8.3660    0.8660    0.0000 C   0  0  3  0  0  0  0  0  0  0  0  0
    7.3660    0.8660    0.0000 C   0  0  0  0  0  0  0  0  0  0  0  0
    8.8660    1.7320    0.0000 C   0  0  0  0  0  0  0  0  0  0  0  0
    3.0265    0.5989    0.0000 H   0  0  0  0  0  0  0  0  0  0  0  0
    1.3894   -0.6077    0.0000 H   0  0  0  0  0  0  0  0  0  0  0  0
    2.2120   -1.0826    0.0000 H   0  0  0  0  0  0  0  0  0  0  0  0
    2.2120    1.0826    0.0000 H   0  0  0  0  0  0  0  0  0  0  0  0
    1.3894    0.6077    0.0000 H   0  0  0  0  0  0  0  0  0  0  0  0
    4.4486    0.2121    0.0000 H   0  0  0  0  0  0  0  0  0  0  0  0
    3.7584    0.6106    0.0000 H   0  0  0  0  0  0  0  0  0  0  0  0
    5.0560   -1.4030    0.0000 H   0  0  0  0  0  0  0  0  0  0  0  0
    8.2056   -1.9992    0.0000 H   0  0  0  0  0  0  0  0  0  0  0  0
    5.2834   -1.9441    0.0000 H   0  0  0  0  0  0  0  0  0  0  0  0
    5.9737   -2.3426    0.0000 H   0  0  0  0  0  0  0  0  0  0  0  0
    5.9737    0.6106    0.0000 H   0  0  0  0  0  0  0  0  0  0  0  0
    5.2834    0.2121    0.0000 H   0  0  0  0  0  0  0  0  0  0  0  0
   11.2056    3.1970    0.0000 H   0  0  0  0  0  0  0  0  0  0  0  0
    9.0200   -3.6807    0.0000 H   0  0  0  0  0  0  0  0  0  0  0  0
    9.8426   -3.2057    0.0000 H   0  0  0  0  0  0  0  0  0  0  0  0
    6.7834   -2.8101    0.0000 H   0  0  0  0  0  0  0  0  0  0  0  0
    7.4737   -3.2087    0.0000 H   0  0  0  0  0  0  0  0  0  0  0  0
   12.0200    1.5155    0.0000 H   0  0  0  0  0  0  0  0  0  0  0  0
   12.8426    1.9904    0.0000 H   0  0  0  0  0  0  0  0  0  0  0  0
   10.4737    3.2087    0.0000 H   0  0  0  0  0  0  0  0  0  0  0  0
    9.7834    2.8101    0.0000 H   0  0  0  0  0  0  0  0  0  0  0  0
    8.0560    0.3291    0.0000 H   0  0  0  0  0  0  0  0  0  0  0  0
    7.4737    1.4766    0.0000 H   0  0  0  0  0  0  0  0  0  0  0  0
    6.7834    1.0781    0.0000 H   0  0  0  0  0  0  0  0  0  0  0  0
    8.9737    2.3426    0.0000 H   0  0  0  0  0  0  0  0  0  0  0  0
    8.2834    1.9441    0.0000 H   0  0  0  0  0  0  0  0  0  0  0  0
    9.4860    0.0000    0.0000 H   0  0  0  0  0  0  0  0  0  0  0  0
  1 11  1  0  0  0  0
  1 12  1  0  0  0  0
  2 13  1  0  0  0  0
  2 17  1  0  0  0  0
  3 14  1  0  0  0  0
  3 18  1  0  0  0  0
  4 16  1  0  0  0  0
  4 19  1  0  0  0  0
  5 15  1  0  0  0  0
  5 22  1  0  0  0  0
  6 20  1  0  0  0  0
  6 23  1  0  0  0  0
  7 21  1  0  0  0  0
  7 51  1  0  0  0  0
  8  9  1  0  0  0  0
  8 10  1  0  0  0  0
  8 11  1  0  0  0  0
  8 24  1  0  0  0  0
  9 10  1  0  0  0  0
  9 25  1  0  0  0  0
  9 26  1  0  0  0  0
 10 27  1  0  0  0  0
 10 28  1  0  0  0  0
 11 29  1  0  0  0  0
 11 30  1  0  0  0  0
 12 14  1  0  0  0  0
 12 15  1  0  0  0  0
 12 31  1  0  0  0  0
 13 17  1  0  0  0  0
 13 18  1  0  0  0  0
 13 32  1  0  0  0  0
 14 33  1  0  0  0  0
 14 34  1  0  0  0  0
 15 35  1  0  0  0  0
 15 36  1  0  0  0  0
 16 19  1  0  0  0  0
 16 20  1  0  0  0  0
 16 37  1  0  0  0  0
 17 38  1  0  0  0  0
 17 39  1  0  0  0  0
 18 40  1  0  0  0  0
 18 41  1  0  0  0  0
 19 42  1  0  0  0  0
 19 43  1  0  0  0  0
 20 44  1  0  0  0  0
 20 45  1  0  0  0  0
 21 22  1  0  0  0  0
 21 23  1  0  0  0  0
 21 46  1  0  0  0  0
 22 47  1  0  0  0  0
 22 48  1  0  0  0  0
 23 49  1  0  0  0  0
 23 50  1  0  0  0  0
M  END
> <PUBCHEM_COMPOUND_CID>
59881172

> <PUBCHEM_COMPOUND_CANONICALIZED>
1

> <PUBCHEM_CACTVS_COMPLEXITY>
336

> <PUBCHEM_CACTVS_HBOND_ACCEPTOR>
7

> <PUBCHEM_CACTVS_HBOND_DONOR>
1

> <PUBCHEM_CACTVS_ROTATABLE_BOND>
15

> <PUBCHEM_CACTVS_SUBSKEYS>
AAADceB4OAAAAAAAAAAAAAAAGiQAAAAAAAAAAAAAAAAAAAAAAAAAGgAACAAADRSggAIAAAAABgAAAAAAAAAAAAAAAAAAAAAAAAABEAAAAAACAAAFAAADAAAAAAAAAAAAAAAAAAAAAAAAAAAAAAAAAAAAAA==

> <PUBCHEM_IUPAC_OPENEYE_NAME>
1-[2-(cyclopropylmethoxy)-3-(oxiran-2-ylmethoxy)propoxy]-3-(oxiran-2-ylmethoxy)propan-2-ol

> <PUBCHEM_IUPAC_CAS_NAME>
1-[2-(cyclopropylmethoxy)-3-(2-oxiranylmethoxy)propoxy]-3-(2-oxiranylmethoxy)-2-propanol

> <PUBCHEM_IUPAC_NAME_MARKUP>
1-[2-(cyclopropylmethoxy)-3-(oxiran-2-ylmethoxy)propoxy]-3-(oxiran-2-ylmethoxy)propan-2-ol

> <PUBCHEM_IUPAC_NAME>
1-[2-(cyclopropylmethoxy)-3-(oxiran-2-ylmethoxy)propoxy]-3-(oxiran-2-ylmethoxy)propan-2-ol

> <PUBCHEM_IUPAC_SYSTEMATIC_NAME>
1-[2-(cyclopropylmethoxy)-3-(oxiran-2-ylmethoxy)propoxy]-3-(oxiran-2-ylmethoxy)propan-2-ol

> <PUBCHEM_IUPAC_TRADITIONAL_NAME>
1-[2-(cyclopropylmethoxy)-3-glycidoxy-propoxy]-3-glycidoxy-propan-2-ol

> <PUBCHEM_IUPAC_INCHI>
InChI=1S/C16H28O7/c17-13(5-19-8-15-10-22-15)4-18-6-14(21-3-12-1-2-12)7-20-9-16-11-23-16/h12-17H,1-11H2

> <PUBCHEM_IUPAC_INCHIKEY>
MMCPALZSDBBGQR-UHFFFAOYSA-N

> <PUBCHEM_XLOGP3_AA>
-0.8

> <PUBCHEM_EXACT_MASS>
332.18350323

> <PUBCHEM_MOLECULAR_FORMULA>
C16H28O7

> <PUBCHEM_MOLECULAR_WEIGHT>
332.39

> <PUBCHEM_OPENEYE_CAN_SMILES>
C1CC1COC(COCC2CO2)COCC(COCC3CO3)O

> <PUBCHEM_OPENEYE_ISO_SMILES>
C1CC1COC(COCC2CO2)COCC(COCC3CO3)O

> <PUBCHEM_CACTVS_TPSA>
82.2

> <PUBCHEM_MONOISOTOPIC_WEIGHT>
332.18350323

> <PUBCHEM_TOTAL_CHARGE>
0

> <PUBCHEM_HEAVY_ATOM_COUNT>
23

> <PUBCHEM_ATOM_DEF_STEREO_COUNT>
0

> <PUBCHEM_ATOM_UDEF_STEREO_COUNT>
4

> <PUBCHEM_BOND_DEF_STEREO_COUNT>
0

> <PUBCHEM_BOND_UDEF_STEREO_COUNT>
0

> <PUBCHEM_ISOTOPIC_ATOM_COUNT>
0

> <PUBCHEM_COMPONENT_COUNT>
1

> <PUBCHEM_CACTVS_TAUTO_COUNT>
-1

> <PUBCHEM_COORDINATE_TYPE>
1
5
255

> <PUBCHEM_BONDANNOTATIONS>
12  14  3
13  18  3
16  20  3
21  7  3

$$$$
