 
  -OEChem-10192104352D

 87 92  0     1  0  0  0  0  0999 V2000
    9.8462    3.7246    0.0000 O   0  0  0  0  0  0  0  0  0  0  0  0
    6.3821   -2.2754    0.0000 O   0  0  0  0  0  0  0  0  0  0  0  0
   11.5783    6.7246    0.0000 O   0  0  0  0  0  0  0  0  0  0  0  0
    4.6501   -5.2754    0.0000 O   0  0  0  0  0  0  0  0  0  0  0  0
   11.5783    4.7246    0.0000 O   0  0  0  0  0  0  0  0  0  0  0  0
    6.3821   -4.2754    0.0000 O   0  0  0  0  0  0  0  0  0  0  0  0
   11.5783    9.7246    0.0000 O   0  0  0  0  0  0  0  0  0  0  0  0
    5.5161   -6.7754    0.0000 O   0  0  0  0  0  0  0  0  0  0  0  0
   10.7123    8.2246    0.0000 O   0  0  0  0  0  0  0  0  0  0  0  0
    2.9180   -5.2754    0.0000 O   0  0  0  0  0  0  0  0  0  0  0  0
    6.3821    1.7246    0.0000 C   0  0  0  0  0  0  0  0  0  0  0  0
    7.2482    2.2246    0.0000 C   0  0  0  0  0  0  0  0  0  0  0  0
    6.3821    0.7246    0.0000 C   0  0  0  0  0  0  0  0  0  0  0  0
   10.7123    5.2246    0.0000 C   0  0  3  0  0  0  0  0  0  0  0  0
    5.5161   -3.7754    0.0000 C   0  0  3  0  0  0  0  0  0  0  0  0
    9.8462    4.7246    0.0000 C   0  0  0  0  0  0  0  0  0  0  0  0
    5.5161   -2.7754    0.0000 C   0  0  0  0  0  0  0  0  0  0  0  0
   10.7123    6.2246    0.0000 C   0  0  0  0  0  0  0  0  0  0  0  0
    4.6501   -4.2754    0.0000 C   0  0  0  0  0  0  0  0  0  0  0  0
    8.9802    3.2246    0.0000 C   0  0  0  0  0  0  0  0  0  0  0  0
    6.3821   -1.2754    0.0000 C   0  0  0  0  0  0  0  0  0  0  0  0
    8.1142    1.7246    0.0000 C   0  0  0  0  0  0  0  0  0  0  0  0
    7.2482    0.2246    0.0000 C   0  0  0  0  0  0  0  0  0  0  0  0
    7.2482    3.2246    0.0000 C   0  0  0  0  0  0  0  0  0  0  0  0
    5.5161    0.2246    0.0000 C   0  0  0  0  0  0  0  0  0  0  0  0
    8.9802    2.2246    0.0000 C   0  0  0  0  0  0  0  0  0  0  0  0
    7.2482   -0.7754    0.0000 C   0  0  0  0  0  0  0  0  0  0  0  0
    8.1142    3.7246    0.0000 C   0  0  0  0  0  0  0  0  0  0  0  0
    5.5161   -0.7754    0.0000 C   0  0  0  0  0  0  0  0  0  0  0  0
   14.1764    8.2246    0.0000 C   0  0  0  0  0  0  0  0  0  0  0  0
    2.9180   -8.2754    0.0000 C   0  0  0  0  0  0  0  0  0  0  0  0
   14.1764    9.2246    0.0000 C   0  0  0  0  0  0  0  0  0  0  0  0
    3.7841   -8.7754    0.0000 C   0  0  0  0  0  0  0  0  0  0  0  0
   12.4443    8.2246    0.0000 C   0  0  0  0  0  0  0  0  0  0  0  0
    3.7841   -6.7754    0.0000 C   0  0  0  0  0  0  0  0  0  0  0  0
   13.3103    7.7246    0.0000 C   0  0  0  0  0  0  0  0  0  0  0  0
    2.9180   -7.2754    0.0000 C   0  0  0  0  0  0  0  0  0  0  0  0
   12.4443    9.2246    0.0000 C   0  0  0  0  0  0  0  0  0  0  0  0
    4.6501   -7.2754    0.0000 C   0  0  0  0  0  0  0  0  0  0  0  0
   13.3103    9.7246    0.0000 C   0  0  0  0  0  0  0  0  0  0  0  0
    4.6501   -8.2754    0.0000 C   0  0  0  0  0  0  0  0  0  0  0  0
   11.5783    7.7246    0.0000 C   0  0  0  0  0  0  0  0  0  0  0  0
    3.7841   -5.7754    0.0000 C   0  0  0  0  0  0  0  0  0  0  0  0
   15.0703    7.6900    0.0000 C   0  0  0  0  0  0  0  0  0  0  0  0
    2.0080   -8.7822    0.0000 C   0  0  0  0  0  0  0  0  0  0  0  0
   15.0703    9.7593    0.0000 C   0  0  0  0  0  0  0  0  0  0  0  0
    3.8001   -9.8169    0.0000 C   0  0  0  0  0  0  0  0  0  0  0  0
   15.9764    8.2038    0.0000 C   0  0  0  0  0  0  0  0  0  0  0  0
    2.0000   -9.8238    0.0000 C   0  0  0  0  0  0  0  0  0  0  0  0
   15.9764    9.2454    0.0000 C   0  0  0  0  0  0  0  0  0  0  0  0
    2.9021  -10.3446    0.0000 C   0  0  0  0  0  0  0  0  0  0  0  0
    6.1701    2.3072    0.0000 H   0  0  0  0  0  0  0  0  0  0  0  0
    5.7716    1.6170    0.0000 H   0  0  0  0  0  0  0  0  0  0  0  0
   10.7123    4.6046    0.0000 H   0  0  0  0  0  0  0  0  0  0  0  0
    6.0530   -3.4654    0.0000 H   0  0  0  0  0  0  0  0  0  0  0  0
    9.6342    5.3072    0.0000 H   0  0  0  0  0  0  0  0  0  0  0  0
    9.2356    4.6170    0.0000 H   0  0  0  0  0  0  0  0  0  0  0  0
    5.3040   -2.1928    0.0000 H   0  0  0  0  0  0  0  0  0  0  0  0
    4.9055   -2.8830    0.0000 H   0  0  0  0  0  0  0  0  0  0  0  0
   10.5002    6.8072    0.0000 H   0  0  0  0  0  0  0  0  0  0  0  0
   10.1017    6.1170    0.0000 H   0  0  0  0  0  0  0  0  0  0  0  0
    4.4380   -3.6928    0.0000 H   0  0  0  0  0  0  0  0  0  0  0  0
    4.0395   -4.3830    0.0000 H   0  0  0  0  0  0  0  0  0  0  0  0
    8.1142    1.1046    0.0000 H   0  0  0  0  0  0  0  0  0  0  0  0
    7.7851    0.5346    0.0000 H   0  0  0  0  0  0  0  0  0  0  0  0
    6.7112    3.5346    0.0000 H   0  0  0  0  0  0  0  0  0  0  0  0
    4.9792    0.5346    0.0000 H   0  0  0  0  0  0  0  0  0  0  0  0
    9.5172    1.9146    0.0000 H   0  0  0  0  0  0  0  0  0  0  0  0
    7.7851   -1.0854    0.0000 H   0  0  0  0  0  0  0  0  0  0  0  0
    8.1142    4.3446    0.0000 H   0  0  0  0  0  0  0  0  0  0  0  0
    4.9792   -1.0854    0.0000 H   0  0  0  0  0  0  0  0  0  0  0  0
   13.3103    7.1046    0.0000 H   0  0  0  0  0  0  0  0  0  0  0  0
    2.3811   -6.9654    0.0000 H   0  0  0  0  0  0  0  0  0  0  0  0
   13.3103   10.3446    0.0000 H   0  0  0  0  0  0  0  0  0  0  0  0
    5.1870   -8.5854    0.0000 H   0  0  0  0  0  0  0  0  0  0  0  0
   15.0631    7.0700    0.0000 H   0  0  0  0  0  0  0  0  0  0  0  0
    1.4747   -8.4660    0.0000 H   0  0  0  0  0  0  0  0  0  0  0  0
   15.0631   10.3793    0.0000 H   0  0  0  0  0  0  0  0  0  0  0  0
    4.3406  -10.1206    0.0000 H   0  0  0  0  0  0  0  0  0  0  0  0
   11.5783    4.1046    0.0000 H   0  0  0  0  0  0  0  0  0  0  0  0
    6.3821   -4.8954    0.0000 H   0  0  0  0  0  0  0  0  0  0  0  0
   16.5121    7.8918    0.0000 H   0  0  0  0  0  0  0  0  0  0  0  0
    1.4619  -10.1317    0.0000 H   0  0  0  0  0  0  0  0  0  0  0  0
   16.5121    9.5575    0.0000 H   0  0  0  0  0  0  0  0  0  0  0  0
    2.9045  -10.9646    0.0000 H   0  0  0  0  0  0  0  0  0  0  0  0
   11.5783   10.3446    0.0000 H   0  0  0  0  0  0  0  0  0  0  0  0
    6.0530   -7.0854    0.0000 H   0  0  0  0  0  0  0  0  0  0  0  0
  1 16  1  0  0  0  0
  1 20  1  0  0  0  0
  2 17  1  0  0  0  0
  2 21  1  0  0  0  0
  3 18  1  0  0  0  0
  3 42  1  0  0  0  0
  4 19  1  0  0  0  0
  4 43  1  0  0  0  0
  5 14  1  0  0  0  0
  5 80  1  0  0  0  0
  6 15  1  0  0  0  0
  6 81  1  0  0  0  0
  7 38  1  0  0  0  0
  7 86  1  0  0  0  0
  8 39  1  0  0  0  0
  8 87  1  0  0  0  0
  9 42  2  0  0  0  0
 10 43  2  0  0  0  0
 11 12  1  0  0  0  0
 11 13  1  0  0  0  0
 11 52  1  0  0  0  0
 11 53  1  0  0  0  0
 12 22  2  0  0  0  0
 12 24  1  0  0  0  0
 13 23  2  0  0  0  0
 13 25  1  0  0  0  0
 14 16  1  0  0  0  0
 14 18  1  0  0  0  0
 14 54  1  0  0  0  0
 15 17  1  0  0  0  0
 15 19  1  0  0  0  0
 15 55  1  0  0  0  0
 16 56  1  0  0  0  0
 16 57  1  0  0  0  0
 17 58  1  0  0  0  0
 17 59  1  0  0  0  0
 18 60  1  0  0  0  0
 18 61  1  0  0  0  0
 19 62  1  0  0  0  0
 19 63  1  0  0  0  0
 20 26  2  0  0  0  0
 20 28  1  0  0  0  0
 21 27  2  0  0  0  0
 21 29  1  0  0  0  0
 22 26  1  0  0  0  0
 22 64  1  0  0  0  0
 23 27  1  0  0  0  0
 23 65  1  0  0  0  0
 24 28  2  0  0  0  0
 24 66  1  0  0  0  0
 25 29  2  0  0  0  0
 25 67  1  0  0  0  0
 26 68  1  0  0  0  0
 27 69  1  0  0  0  0
 28 70  1  0  0  0  0
 29 71  1  0  0  0  0
 30 32  1  0  0  0  0
 30 36  1  0  0  0  0
 30 44  2  0  0  0  0
 31 33  1  0  0  0  0
 31 37  1  0  0  0  0
 31 45  2  0  0  0  0
 32 40  1  0  0  0  0
 32 46  2  0  0  0  0
 33 41  1  0  0  0  0
 33 47  2  0  0  0  0
 34 36  2  0  0  0  0
 34 38  1  0  0  0  0
 34 42  1  0  0  0  0
 35 37  2  0  0  0  0
 35 39  1  0  0  0  0
 35 43  1  0  0  0  0
 36 72  1  0  0  0  0
 37 73  1  0  0  0  0
 38 40  2  0  0  0  0
 39 41  2  0  0  0  0
 40 74  1  0  0  0  0
 41 75  1  0  0  0  0
 44 48  1  0  0  0  0
 44 76  1  0  0  0  0
 45 49  1  0  0  0  0
 45 77  1  0  0  0  0
 46 50  1  0  0  0  0
 46 78  1  0  0  0  0
 47 51  1  0  0  0  0
 47 79  1  0  0  0  0
 48 50  2  0  0  0  0
 48 82  1  0  0  0  0
 49 51  2  0  0  0  0
 49 83  1  0  0  0  0
 50 84  1  0  0  0  0
 51 85  1  0  0  0  0
M  END
> <PUBCHEM_COMPOUND_CID>
122693931

> <PUBCHEM_COMPOUND_CANONICALIZED>
1

> <PUBCHEM_CACTVS_COMPLEXITY>
989

> <PUBCHEM_CACTVS_HBOND_ACCEPTOR>
10

> <PUBCHEM_CACTVS_HBOND_DONOR>
4

> <PUBCHEM_CACTVS_ROTATABLE_BOND>
16

> <PUBCHEM_CACTVS_SUBSKEYS>
AAADcfB8PAAAAAAAAAAAAAAAAAAAAAAAAAAwYMGDAAAAAADBVAAAGgAACAAADBSgmAIwDsAABgCIAiDSCAACCAAkIAAIiAEGCMgNNzaGNRqCeWCl4BELuYeIyPCO4AADAAAYAADAAAYAADAAAAAAAAAAAA==

> <PUBCHEM_IUPAC_OPENEYE_NAME>
[2-hydroxy-3-[4-[[4-[2-hydroxy-3-(3-hydroxynaphthalene-2-carbonyl)oxy-propoxy]phenyl]methyl]phenoxy]propyl] 3-hydroxynaphthalene-2-carboxylate

> <PUBCHEM_IUPAC_CAS_NAME>
3-hydroxy-2-naphthalenecarboxylic acid [2-hydroxy-3-[4-[[4-[2-hydroxy-3-[(3-hydroxy-2-naphthalenyl)-oxomethoxy]propoxy]phenyl]methyl]phenoxy]propyl] ester

> <PUBCHEM_IUPAC_NAME_MARKUP>
[2-hydroxy-3-[4-[[4-[2-hydroxy-3-(3-hydroxynaphthalene-2-carbonyl)oxypropoxy]phenyl]methyl]phenoxy]propyl] 3-hydroxynaphthalene-2-carboxylate

> <PUBCHEM_IUPAC_NAME>
[2-hydroxy-3-[4-[[4-[2-hydroxy-3-(3-hydroxynaphthalene-2-carbonyl)oxypropoxy]phenyl]methyl]phenoxy]propyl] 3-hydroxynaphthalene-2-carboxylate

> <PUBCHEM_IUPAC_SYSTEMATIC_NAME>
[2-oxidanyl-3-[4-[[4-[2-oxidanyl-3-(3-oxidanylnaphthalen-2-yl)carbonyloxy-propoxy]phenyl]methyl]phenoxy]propyl] 3-oxidanylnaphthalene-2-carboxylate

> <PUBCHEM_IUPAC_TRADITIONAL_NAME>
3-hydroxynaphthalene-2-carboxylic acid [2-hydroxy-3-[4-[4-[2-hydroxy-3-(3-hydroxy-2-naphthoyl)oxy-propoxy]benzyl]phenoxy]propyl] ester

> <PUBCHEM_IUPAC_INCHI>
InChI=1S/C41H36O10/c42-32(24-50-40(46)36-18-28-5-1-3-7-30(28)20-38(36)44)22-48-34-13-9-26(10-14-34)17-27-11-15-35(16-12-27)49-23-33(43)25-51-41(47)37-19-29-6-2-4-8-31(29)21-39(37)45/h1-16,18-21,32-33,42-45H,17,22-25H2

> <PUBCHEM_IUPAC_INCHIKEY>
GLAPFUSMBOJQPD-UHFFFAOYSA-N

> <PUBCHEM_XLOGP3_AA>
8.5

> <PUBCHEM_EXACT_MASS>
688.23084734

> <PUBCHEM_MOLECULAR_FORMULA>
C41H36O10

> <PUBCHEM_MOLECULAR_WEIGHT>
688.7

> <PUBCHEM_OPENEYE_CAN_SMILES>
C1=CC=C2C=C(C(=CC2=C1)C(=O)OCC(COC3=CC=C(C=C3)CC4=CC=C(C=C4)OCC(COC(=O)C5=CC6=CC=CC=C6C=C5O)O)O)O

> <PUBCHEM_OPENEYE_ISO_SMILES>
C1=CC=C2C=C(C(=CC2=C1)C(=O)OCC(COC3=CC=C(C=C3)CC4=CC=C(C=C4)OCC(COC(=O)C5=CC6=CC=CC=C6C=C5O)O)O)O

> <PUBCHEM_CACTVS_TPSA>
152

> <PUBCHEM_MONOISOTOPIC_WEIGHT>
688.23084734

> <PUBCHEM_TOTAL_CHARGE>
0

> <PUBCHEM_HEAVY_ATOM_COUNT>
51

> <PUBCHEM_ATOM_DEF_STEREO_COUNT>
0

> <PUBCHEM_ATOM_UDEF_STEREO_COUNT>
2

> <PUBCHEM_BOND_DEF_STEREO_COUNT>
0

> <PUBCHEM_BOND_UDEF_STEREO_COUNT>
0

> <PUBCHEM_ISOTOPIC_ATOM_COUNT>
0

> <PUBCHEM_COMPONENT_COUNT>
1

> <PUBCHEM_CACTVS_TAUTO_COUNT>
-1

> <PUBCHEM_COORDINATE_TYPE>
1
5
255

> <PUBCHEM_BONDANNOTATIONS>
12  22  8
12  24  8
13  23  8
13  25  8
20  26  8
20  28  8
21  27  8
21  29  8
22  26  8
23  27  8
24  28  8
25  29  8
30  32  8
30  36  8
30  44  8
31  33  8
31  37  8
31  45  8
32  40  8
32  46  8
33  41  8
33  47  8
34  36  8
34  38  8
35  37  8
35  39  8
38  40  8
39  41  8
44  48  8
45  49  8
46  50  8
47  51  8
48  50  8
49  51  8
14  5  3
15  6  3

$$$$
