 
  -OEChem-10192103502D

 58 59  0     1  0  0  0  0  0999 V2000
    6.8909   -1.7127    0.0000 P   0  0  3  0  0  0  0  0  0  0  0  0
    5.0298    0.7519    0.0000 O   0  0  0  0  0  0  0  0  0  0  0  0
    3.1330   -1.0082    0.0000 O   0  0  0  0  0  0  0  0  0  0  0  0
    2.4608    1.0609    0.0000 O   0  0  0  0  0  0  0  0  0  0  0  0
    6.3031   -0.9037    0.0000 O   0  0  0  0  0  0  0  0  0  0  0  0
    7.4787   -2.5217    0.0000 O   0  0  0  0  0  0  0  0  0  0  0  0
    5.9529    2.3397    0.0000 O   0  0  0  0  0  0  0  0  0  0  0  0
    7.6999   -1.1249    0.0000 O   0  0  0  0  0  0  0  0  0  0  0  0
    6.0819   -2.3005    0.0000 O   0  0  0  0  0  0  0  0  0  0  0  0
    4.2208    5.3397    0.0000 O   0  0  0  0  0  0  0  0  0  0  0  0
    4.2208    2.3397    0.0000 N   0  0  0  0  0  0  0  0  0  0  0  0
    5.0868    3.8397    0.0000 N   0  0  0  0  0  0  0  0  0  0  0  0
    3.7208   -0.1992    0.0000 C   0  0  1  0  0  0  0  0  0  0  0  0
    3.4118    0.7519    0.0000 C   0  0  2  0  0  0  0  0  0  0  0  0
    4.7208   -0.1992    0.0000 C   0  0  1  0  0  0  0  0  0  0  0  0
    4.2208    1.3397    0.0000 C   0  0  1  0  0  0  0  0  0  0  0  0
    5.3086   -1.0082    0.0000 C   0  0  0  0  0  0  0  0  0  0  0  0
    5.0868    2.8397    0.0000 C   0  0  0  0  0  0  0  0  0  0  0  0
    3.3548    2.8397    0.0000 C   0  0  0  0  0  0  0  0  0  0  0  0
   10.6433   -3.9307    0.0000 C   0  0  0  0  0  0  0  0  0  0  0  0
   10.0555   -3.1217    0.0000 C   0  0  0  0  0  0  0  0  0  0  0  0
    3.3548    3.8397    0.0000 C   0  0  0  0  0  0  0  0  0  0  0  0
    9.0610   -3.2262    0.0000 C   0  0  0  0  0  0  0  0  0  0  0  0
   11.6378   -3.8262    0.0000 C   0  0  0  0  0  0  0  0  0  0  0  0
    8.4732   -2.4172    0.0000 C   0  0  0  0  0  0  0  0  0  0  0  0
   12.2256   -4.6352    0.0000 C   0  0  0  0  0  0  0  0  0  0  0  0
    4.2208    4.3397    0.0000 C   0  0  0  0  0  0  0  0  0  0  0  0
   13.2201   -4.5306    0.0000 C   0  0  0  0  0  0  0  0  0  0  0  0
   13.8079   -5.3397    0.0000 C   0  0  0  0  0  0  0  0  0  0  0  0
    3.1085   -0.1022    0.0000 H   0  0  0  0  0  0  0  0  0  0  0  0
    3.3148    1.3642    0.0000 H   0  0  0  0  0  0  0  0  0  0  0  0
    5.3332   -0.1022    0.0000 H   0  0  0  0  0  0  0  0  0  0  0  0
    3.6684    1.6211    0.0000 H   0  0  0  0  0  0  0  0  0  0  0  0
    4.7514   -1.2800    0.0000 H   0  0  0  0  0  0  0  0  0  0  0  0
    5.4795   -1.6042    0.0000 H   0  0  0  0  0  0  0  0  0  0  0  0
    3.3852   -1.5746    0.0000 H   0  0  0  0  0  0  0  0  0  0  0  0
    2.0000    0.6460    0.0000 H   0  0  0  0  0  0  0  0  0  0  0  0
    2.8179    2.5297    0.0000 H   0  0  0  0  0  0  0  0  0  0  0  0
   10.0861   -4.2025    0.0000 H   0  0  0  0  0  0  0  0  0  0  0  0
   10.8142   -4.5267    0.0000 H   0  0  0  0  0  0  0  0  0  0  0  0
   10.6128   -2.8499    0.0000 H   0  0  0  0  0  0  0  0  0  0  0  0
    9.8846   -2.5257    0.0000 H   0  0  0  0  0  0  0  0  0  0  0  0
    8.5038   -3.4980    0.0000 H   0  0  0  0  0  0  0  0  0  0  0  0
    9.2319   -3.8222    0.0000 H   0  0  0  0  0  0  0  0  0  0  0  0
   12.1951   -3.5544    0.0000 H   0  0  0  0  0  0  0  0  0  0  0  0
   11.4669   -3.2302    0.0000 H   0  0  0  0  0  0  0  0  0  0  0  0
    5.6238    4.1497    0.0000 H   0  0  0  0  0  0  0  0  0  0  0  0
    2.8179    4.1497    0.0000 H   0  0  0  0  0  0  0  0  0  0  0  0
    9.0305   -2.1454    0.0000 H   0  0  0  0  0  0  0  0  0  0  0  0
    8.3023   -1.8212    0.0000 H   0  0  0  0  0  0  0  0  0  0  0  0
   11.6684   -4.9070    0.0000 H   0  0  0  0  0  0  0  0  0  0  0  0
   12.3965   -5.2312    0.0000 H   0  0  0  0  0  0  0  0  0  0  0  0
   13.7774   -4.2588    0.0000 H   0  0  0  0  0  0  0  0  0  0  0  0
   13.0492   -3.9347    0.0000 H   0  0  0  0  0  0  0  0  0  0  0  0
    7.6351   -0.5083    0.0000 H   0  0  0  0  0  0  0  0  0  0  0  0
   13.3063   -5.7041    0.0000 H   0  0  0  0  0  0  0  0  0  0  0  0
   14.1724   -5.8412    0.0000 H   0  0  0  0  0  0  0  0  0  0  0  0
   14.3095   -4.9752    0.0000 H   0  0  0  0  0  0  0  0  0  0  0  0
  1  5  1  0  0  0  0
  1  6  1  0  0  0  0
  1  8  1  0  0  0  0
  1  9  2  0  0  0  0
  2 15  1  0  0  0  0
  2 16  1  0  0  0  0
 13  3  1  1  0  0  0
  3 36  1  0  0  0  0
 14  4  1  1  0  0  0
  4 37  1  0  0  0  0
  5 17  1  0  0  0  0
  6 25  1  0  0  0  0
  7 18  2  0  0  0  0
  8 55  1  0  0  0  0
 10 27  2  0  0  0  0
 16 11  1  6  0  0  0
 11 18  1  0  0  0  0
 11 19  1  0  0  0  0
 12 18  1  0  0  0  0
 12 27  1  0  0  0  0
 12 47  1  0  0  0  0
 13 14  1  0  0  0  0
 13 15  1  0  0  0  0
 13 30  1  0  0  0  0
 14 16  1  0  0  0  0
 14 31  1  0  0  0  0
 15 17  1  6  0  0  0
 15 32  1  0  0  0  0
 16 33  1  0  0  0  0
 17 34  1  0  0  0  0
 17 35  1  0  0  0  0
 19 22  2  0  0  0  0
 19 38  1  0  0  0  0
 20 21  1  0  0  0  0
 20 24  1  0  0  0  0
 20 39  1  0  0  0  0
 20 40  1  0  0  0  0
 21 23  1  0  0  0  0
 21 41  1  0  0  0  0
 21 42  1  0  0  0  0
 22 27  1  0  0  0  0
 22 48  1  0  0  0  0
 23 25  1  0  0  0  0
 23 43  1  0  0  0  0
 23 44  1  0  0  0  0
 24 26  1  0  0  0  0
 24 45  1  0  0  0  0
 24 46  1  0  0  0  0
 25 49  1  0  0  0  0
 25 50  1  0  0  0  0
 26 28  1  0  0  0  0
 26 51  1  0  0  0  0
 26 52  1  0  0  0  0
 28 29  1  0  0  0  0
 28 53  1  0  0  0  0
 28 54  1  0  0  0  0
 29 56  1  0  0  0  0
 29 57  1  0  0  0  0
 29 58  1  0  0  0  0
M  END
> <PUBCHEM_COMPOUND_CID>
102066182

> <PUBCHEM_COMPOUND_CANONICALIZED>
1

> <PUBCHEM_CACTVS_COMPLEXITY>
644

> <PUBCHEM_CACTVS_HBOND_ACCEPTOR>
9

> <PUBCHEM_CACTVS_HBOND_DONOR>
4

> <PUBCHEM_CACTVS_ROTATABLE_BOND>
12

> <PUBCHEM_CACTVS_SUBSKEYS>
AAADceB7PAIAAAAAAAAAAAAAAAAAASAAAAAgAAAAAAAAAAAAAAAAHgAQCCAACBThgAYDAAPABxCIQCFWUICAAAAAAgAIAAAIAECDEAIAgAAOQAAPFyITAMHw8KIAAAAAAAAAAAAAAAAAAAAAAAAAAAAAAA==

> <PUBCHEM_IUPAC_OPENEYE_NAME>
[(2R,3S,4R,5R)-5-(2,4-dioxopyrimidin-1-yl)-3,4-dihydroxy-tetrahydrofuran-2-yl]methyl octyl hydrogen phosphate

> <PUBCHEM_IUPAC_CAS_NAME>
[(2R,3S,4R,5R)-5-(2,4-dioxo-1-pyrimidinyl)-3,4-dihydroxy-2-oxolanyl]methyl octyl hydrogen phosphate

> <PUBCHEM_IUPAC_NAME_MARKUP>
[(2<I>R</I>,3<I>S</I>,4<I>R</I>,5<I>R</I>)-5-(2,4-dioxopyrimidin-1-yl)-3,4-dihydroxyoxolan-2-yl]methyl octyl hydrogen phosphate

> <PUBCHEM_IUPAC_NAME>
[(2R,3S,4R,5R)-5-(2,4-dioxopyrimidin-1-yl)-3,4-dihydroxyoxolan-2-yl]methyl octyl hydrogen phosphate

> <PUBCHEM_IUPAC_SYSTEMATIC_NAME>
[(2R,3S,4R,5R)-5-[2,4-bis(oxidanylidene)pyrimidin-1-yl]-3,4-bis(oxidanyl)oxolan-2-yl]methyl octyl hydrogen phosphate

> <PUBCHEM_IUPAC_TRADITIONAL_NAME>
[(2R,3S,4R,5R)-5-(2,4-diketopyrimidin-1-yl)-3,4-dihydroxy-tetrahydrofuran-2-yl]methyl octyl hydrogen phosphate

> <PUBCHEM_IUPAC_INCHI>
InChI=1S/C17H29N2O9P/c1-2-3-4-5-6-7-10-26-29(24,25)27-11-12-14(21)15(22)16(28-12)19-9-8-13(20)18-17(19)23/h8-9,12,14-16,21-22H,2-7,10-11H2,1H3,(H,24,25)(H,18,20,23)/t12-,14-,15-,16-/m1/s1

> <PUBCHEM_IUPAC_INCHIKEY>
VXOSEPJFFLYZNB-DTZQCDIJSA-N

> <PUBCHEM_XLOGP3>
0.3

> <PUBCHEM_EXACT_MASS>
436.16106750

> <PUBCHEM_MOLECULAR_FORMULA>
C17H29N2O9P

> <PUBCHEM_MOLECULAR_WEIGHT>
436.4

> <PUBCHEM_OPENEYE_CAN_SMILES>
CCCCCCCCOP(=O)(O)OCC1C(C(C(O1)N2C=CC(=O)NC2=O)O)O

> <PUBCHEM_OPENEYE_ISO_SMILES>
CCCCCCCCOP(=O)(O)OC[C@@H]1[C@H]([C@H]([C@@H](O1)N2C=CC(=O)NC2=O)O)O

> <PUBCHEM_CACTVS_TPSA>
155

> <PUBCHEM_MONOISOTOPIC_WEIGHT>
436.16106750

> <PUBCHEM_TOTAL_CHARGE>
0

> <PUBCHEM_HEAVY_ATOM_COUNT>
29

> <PUBCHEM_ATOM_DEF_STEREO_COUNT>
4

> <PUBCHEM_ATOM_UDEF_STEREO_COUNT>
0

> <PUBCHEM_BOND_DEF_STEREO_COUNT>
0

> <PUBCHEM_BOND_UDEF_STEREO_COUNT>
0

> <PUBCHEM_ISOTOPIC_ATOM_COUNT>
0

> <PUBCHEM_COMPONENT_COUNT>
1

> <PUBCHEM_CACTVS_TAUTO_COUNT>
-1

> <PUBCHEM_COORDINATE_TYPE>
1
5
255

> <PUBCHEM_BONDANNOTATIONS>
16  11  6
11  18  8
11  19  8
12  18  8
12  27  8
15  17  6
19  22  8
22  27  8
13  3  5
14  4  5

$$$$
