 
  -OEChem-10192104432D

 38 39  0     0  0  0  0  0  0999 V2000
    6.3301    0.0761    0.0000 O   0  0  0  0  0  0  0  0  0  0  0  0
    7.9673    2.5240    0.0000 O   0  5  0  0  0  0  0  0  0  0  0  0
    7.4321    0.8767    0.0000 O   0  0  0  0  0  0  0  0  0  0  0  0
    7.1962   -2.4239    0.0000 O   0  5  0  0  0  0  0  0  0  0  0  0
    2.0000   -2.4239    0.0000 O   0  5  0  0  0  0  0  0  0  0  0  0
    6.3301   -3.9239    0.0000 O   0  0  0  0  0  0  0  0  0  0  0  0
    2.8660   -3.9239    0.0000 O   0  0  0  0  0  0  0  0  0  0  0  0
    4.9641    3.1149    0.0000 N   0  0  0  0  0  0  0  0  0  0  0  0
    4.5981    0.0761    0.0000 N   0  0  0  0  0  0  0  0  0  0  0  0
    4.6551    2.1639    0.0000 N   0  0  0  0  0  0  0  0  0  0  0  0
    7.2242    1.8548    0.0000 N   0  3  0  0  0  0  0  0  0  0  0  0
    6.3301   -2.9239    0.0000 N   0  3  0  0  0  0  0  0  0  0  0  0
    2.8660   -2.9239    0.0000 N   0  3  0  0  0  0  0  0  0  0  0  0
    5.9641    3.1149    0.0000 C   0  0  0  0  0  0  0  0  0  0  0  0
    6.2731    2.1639    0.0000 C   0  0  0  0  0  0  0  0  0  0  0  0
    5.4641    1.5761    0.0000 C   0  0  0  0  0  0  0  0  0  0  0  0
    4.5981   -0.9239    0.0000 C   0  0  0  0  0  0  0  0  0  0  0  0
    4.5981   -2.9239    0.0000 C   0  0  0  0  0  0  0  0  0  0  0  0
    5.4641   -2.4239    0.0000 C   0  0  0  0  0  0  0  0  0  0  0  0
    3.7320   -2.4239    0.0000 C   0  0  0  0  0  0  0  0  0  0  0  0
    5.4641    0.5761    0.0000 C   0  0  0  0  0  0  0  0  0  0  0  0
    5.4641   -1.4239    0.0000 C   0  0  0  0  0  0  0  0  0  0  0  0
    3.7320   -1.4239    0.0000 C   0  0  0  0  0  0  0  0  0  0  0  0
    6.5519    3.9239    0.0000 C   0  0  0  0  0  0  0  0  0  0  0  0
    4.3763    3.9239    0.0000 C   0  0  0  0  0  0  0  0  0  0  0  0
    4.5981   -3.9239    0.0000 C   0  0  0  0  0  0  0  0  0  0  0  0
    6.0010   -1.1139    0.0000 H   0  0  0  0  0  0  0  0  0  0  0  0
    3.1951   -1.1139    0.0000 H   0  0  0  0  0  0  0  0  0  0  0  0
    4.0611    0.3861    0.0000 H   0  0  0  0  0  0  0  0  0  0  0  0
    7.0535    3.5595    0.0000 H   0  0  0  0  0  0  0  0  0  0  0  0
    6.9163    4.4255    0.0000 H   0  0  0  0  0  0  0  0  0  0  0  0
    6.0503    4.2884    0.0000 H   0  0  0  0  0  0  0  0  0  0  0  0
    4.8779    4.2884    0.0000 H   0  0  0  0  0  0  0  0  0  0  0  0
    4.0119    4.4255    0.0000 H   0  0  0  0  0  0  0  0  0  0  0  0
    3.8747    3.5595    0.0000 H   0  0  0  0  0  0  0  0  0  0  0  0
    3.9781   -3.9239    0.0000 H   0  0  0  0  0  0  0  0  0  0  0  0
    4.5981   -4.5439    0.0000 H   0  0  0  0  0  0  0  0  0  0  0  0
    5.2181   -3.9239    0.0000 H   0  0  0  0  0  0  0  0  0  0  0  0
  1 21  2  0  0  0  0
  2 11  1  0  0  0  0
  3 11  2  0  0  0  0
  4 12  1  0  0  0  0
  5 13  1  0  0  0  0
  6 12  2  0  0  0  0
  7 13  2  0  0  0  0
  8 10  1  0  0  0  0
  8 14  1  0  0  0  0
  8 25  1  0  0  0  0
  9 17  1  0  0  0  0
  9 21  1  0  0  0  0
  9 29  1  0  0  0  0
 10 16  2  0  0  0  0
 11 15  1  0  0  0  0
 12 19  1  0  0  0  0
 13 20  1  0  0  0  0
 14 15  2  0  0  0  0
 14 24  1  0  0  0  0
 15 16  1  0  0  0  0
 16 21  1  0  0  0  0
 17 22  2  0  0  0  0
 17 23  1  0  0  0  0
 18 19  2  0  0  0  0
 18 20  1  0  0  0  0
 18 26  1  0  0  0  0
 19 22  1  0  0  0  0
 20 23  2  0  0  0  0
 22 27  1  0  0  0  0
 23 28  1  0  0  0  0
 24 30  1  0  0  0  0
 24 31  1  0  0  0  0
 24 32  1  0  0  0  0
 25 33  1  0  0  0  0
 25 34  1  0  0  0  0
 25 35  1  0  0  0  0
 26 36  1  0  0  0  0
 26 37  1  0  0  0  0
 26 38  1  0  0  0  0
M  CHG  6   2  -1   4  -1   5  -1  11   1  12   1  13   1
M  END
> <PUBCHEM_COMPOUND_CID>
19266560

> <PUBCHEM_COMPOUND_CANONICALIZED>
1

> <PUBCHEM_CACTVS_COMPLEXITY>
575

> <PUBCHEM_CACTVS_HBOND_ACCEPTOR>
8

> <PUBCHEM_CACTVS_HBOND_DONOR>
1

> <PUBCHEM_CACTVS_ROTATABLE_BOND>
2

> <PUBCHEM_CACTVS_SUBSKEYS>
AAADccBzuAAAAAAAAAAAAAAAAAAAAWAAAAAwAAAAAAAAAAABwAAAHgAcAAAADAiBngQywJLYQACrAyVyVwCSBAAnkgAw2CG4dNoIYDrA1dGUpYhgnIDIyUccgAAOCAAAAAQCAAAQAAAACAQAAAAAAAAAAA==

> <PUBCHEM_IUPAC_OPENEYE_NAME>
1,5-dimethyl-N-(4-methyl-3,5-dinitro-phenyl)-4-nitro-pyrazole-3-carboxamide

> <PUBCHEM_IUPAC_CAS_NAME>
1,5-dimethyl-N-(4-methyl-3,5-dinitrophenyl)-4-nitro-3-pyrazolecarboxamide

> <PUBCHEM_IUPAC_NAME_MARKUP>
1,5-dimethyl-<I>N</I>-(4-methyl-3,5-dinitrophenyl)-4-nitropyrazole-3-carboxamide

> <PUBCHEM_IUPAC_NAME>
1,5-dimethyl-N-(4-methyl-3,5-dinitrophenyl)-4-nitropyrazole-3-carboxamide

> <PUBCHEM_IUPAC_SYSTEMATIC_NAME>
1,5-dimethyl-N-(4-methyl-3,5-dinitro-phenyl)-4-nitro-pyrazole-3-carboxamide

> <PUBCHEM_IUPAC_TRADITIONAL_NAME>
1,5-dimethyl-N-(4-methyl-3,5-dinitro-phenyl)-4-nitro-pyrazole-3-carboxamide

> <PUBCHEM_IUPAC_INCHI>
InChI=1S/C13H12N6O7/c1-6-9(17(21)22)4-8(5-10(6)18(23)24)14-13(20)11-12(19(25)26)7(2)16(3)15-11/h4-5H,1-3H3,(H,14,20)

> <PUBCHEM_IUPAC_INCHIKEY>
KJUIPEOKSWGQAX-UHFFFAOYSA-N

> <PUBCHEM_XLOGP3_AA>
1.7

> <PUBCHEM_EXACT_MASS>
364.07674674

> <PUBCHEM_MOLECULAR_FORMULA>
C13H12N6O7

> <PUBCHEM_MOLECULAR_WEIGHT>
364.27

> <PUBCHEM_OPENEYE_CAN_SMILES>
CC1=C(C=C(C=C1[N+](=O)[O-])NC(=O)C2=NN(C(=C2[N+](=O)[O-])C)C)[N+](=O)[O-]

> <PUBCHEM_OPENEYE_ISO_SMILES>
CC1=C(C=C(C=C1[N+](=O)[O-])NC(=O)C2=NN(C(=C2[N+](=O)[O-])C)C)[N+](=O)[O-]

> <PUBCHEM_CACTVS_TPSA>
184

> <PUBCHEM_MONOISOTOPIC_WEIGHT>
364.07674674

> <PUBCHEM_TOTAL_CHARGE>
0

> <PUBCHEM_HEAVY_ATOM_COUNT>
26

> <PUBCHEM_ATOM_DEF_STEREO_COUNT>
0

> <PUBCHEM_ATOM_UDEF_STEREO_COUNT>
0

> <PUBCHEM_BOND_DEF_STEREO_COUNT>
0

> <PUBCHEM_BOND_UDEF_STEREO_COUNT>
0

> <PUBCHEM_ISOTOPIC_ATOM_COUNT>
0

> <PUBCHEM_COMPONENT_COUNT>
1

> <PUBCHEM_CACTVS_TAUTO_COUNT>
-1

> <PUBCHEM_COORDINATE_TYPE>
1
5
255

> <PUBCHEM_BONDANNOTATIONS>
10  16  8
14  15  8
15  16  8
17  22  8
17  23  8
18  19  8
18  20  8
19  22  8
20  23  8
8  10  8
8  14  8

$$$$
