 
  -OEChem-10192104052D

 66 67  0     1  0  0  0  0  0999 V2000
   12.0632    3.0950    0.0000 O   0  0  0  0  0  0  0  0  0  0  0  0
    4.2690   -2.4050    0.0000 O   0  0  0  0  0  0  0  0  0  0  0  0
   11.1972    1.5950    0.0000 O   0  0  0  0  0  0  0  0  0  0  0  0
    6.0010   -2.4050    0.0000 O   0  0  0  0  0  0  0  0  0  0  0  0
   14.6613    1.5950    0.0000 O   0  0  0  0  0  0  0  0  0  0  0  0
   14.6613    3.5950    0.0000 O   0  0  0  0  0  0  0  0  0  0  0  0
    4.2690   -5.4050    0.0000 O   0  0  0  0  0  0  0  0  0  0  0  0
    2.5369   -4.4050    0.0000 O   0  0  0  0  0  0  0  0  0  0  0  0
   12.9292    0.5950    0.0000 O   0  0  0  0  0  0  0  0  0  0  0  0
    6.0010   -4.4050    0.0000 O   0  0  0  0  0  0  0  0  0  0  0  0
   12.0632    5.0950    0.0000 O   0  0  0  0  0  0  0  0  0  0  0  0
    2.5369   -1.4050    0.0000 O   0  0  0  0  0  0  0  0  0  0  0  0
   13.7953    2.0950    0.0000 C   0  0  3  0  0  0  0  0  0  0  0  0
   13.7953    3.0950    0.0000 C   0  0  1  0  0  0  0  0  0  0  0  0
    4.2690   -4.4050    0.0000 C   0  0  1  0  0  0  0  0  0  0  0  0
    3.4030   -3.9050    0.0000 C   0  0  2  0  0  0  0  0  0  0  0  0
   12.9292    1.5950    0.0000 C   0  0  3  0  0  0  0  0  0  0  0  0
   12.9292    3.5950    0.0000 C   0  0  3  0  0  0  0  0  0  0  0  0
    5.1350   -3.9050    0.0000 C   0  0  3  0  0  0  0  0  0  0  0  0
    3.4030   -2.9050    0.0000 C   0  0  3  0  0  0  0  0  0  0  0  0
   12.0632    2.0950    0.0000 C   0  0  2  0  0  0  0  0  0  0  0  0
    5.1350   -2.9050    0.0000 C   0  0  1  0  0  0  0  0  0  0  0  0
   12.9292    4.5950    0.0000 C   0  0  0  0  0  0  0  0  0  0  0  0
    2.5369   -2.4050    0.0000 C   0  0  0  0  0  0  0  0  0  0  0  0
   10.3312    2.0950    0.0000 C   0  0  0  0  0  0  0  0  0  0  0  0
    6.0010   -1.4050    0.0000 C   0  0  0  0  0  0  0  0  0  0  0  0
    9.4651    1.5950    0.0000 C   0  0  0  0  0  0  0  0  0  0  0  0
    6.8671   -0.9050    0.0000 C   0  0  0  0  0  0  0  0  0  0  0  0
    8.5991    2.0950    0.0000 C   0  0  0  0  0  0  0  0  0  0  0  0
    6.8671    0.0950    0.0000 C   0  0  0  0  0  0  0  0  0  0  0  0
    7.7331    1.5950    0.0000 C   0  0  0  0  0  0  0  0  0  0  0  0
    7.7331    0.5950    0.0000 C   0  0  0  0  0  0  0  0  0  0  0  0
   13.7953    1.4750    0.0000 H   0  0  0  0  0  0  0  0  0  0  0  0
   14.3322    2.7850    0.0000 H   0  0  0  0  0  0  0  0  0  0  0  0
    4.8059   -4.7150    0.0000 H   0  0  0  0  0  0  0  0  0  0  0  0
    2.8660   -3.5950    0.0000 H   0  0  0  0  0  0  0  0  0  0  0  0
   12.3923    1.2850    0.0000 H   0  0  0  0  0  0  0  0  0  0  0  0
   12.3923    3.9050    0.0000 H   0  0  0  0  0  0  0  0  0  0  0  0
    5.6720   -3.5950    0.0000 H   0  0  0  0  0  0  0  0  0  0  0  0
    3.4030   -2.2850    0.0000 H   0  0  0  0  0  0  0  0  0  0  0  0
   11.5263    2.4050    0.0000 H   0  0  0  0  0  0  0  0  0  0  0  0
    5.1350   -2.2850    0.0000 H   0  0  0  0  0  0  0  0  0  0  0  0
   13.5398    4.4873    0.0000 H   0  0  0  0  0  0  0  0  0  0  0  0
   13.1413    5.1776    0.0000 H   0  0  0  0  0  0  0  0  0  0  0  0
    1.9264   -2.2973    0.0000 H   0  0  0  0  0  0  0  0  0  0  0  0
    2.3249   -2.9876    0.0000 H   0  0  0  0  0  0  0  0  0  0  0  0
   15.1982    1.9050    0.0000 H   0  0  0  0  0  0  0  0  0  0  0  0
   14.6613    4.2150    0.0000 H   0  0  0  0  0  0  0  0  0  0  0  0
    3.7320   -5.7150    0.0000 H   0  0  0  0  0  0  0  0  0  0  0  0
    2.0000   -4.0950    0.0000 H   0  0  0  0  0  0  0  0  0  0  0  0
   13.4662    0.2850    0.0000 H   0  0  0  0  0  0  0  0  0  0  0  0
    6.5380   -4.0950    0.0000 H   0  0  0  0  0  0  0  0  0  0  0  0
   10.7297    2.5700    0.0000 H   0  0  0  0  0  0  0  0  0  0  0  0
    9.9326    2.5700    0.0000 H   0  0  0  0  0  0  0  0  0  0  0  0
    5.7890   -0.8224    0.0000 H   0  0  0  0  0  0  0  0  0  0  0  0
    5.3905   -1.5127    0.0000 H   0  0  0  0  0  0  0  0  0  0  0  0
   12.0632    5.7150    0.0000 H   0  0  0  0  0  0  0  0  0  0  0  0
    2.0000   -1.0950    0.0000 H   0  0  0  0  0  0  0  0  0  0  0  0
    9.0666    1.1200    0.0000 H   0  0  0  0  0  0  0  0  0  0  0  0
    9.8637    1.1200    0.0000 H   0  0  0  0  0  0  0  0  0  0  0  0
    7.0791   -1.4876    0.0000 H   0  0  0  0  0  0  0  0  0  0  0  0
    7.4776   -0.7973    0.0000 H   0  0  0  0  0  0  0  0  0  0  0  0
    8.5991    2.7150    0.0000 H   0  0  0  0  0  0  0  0  0  0  0  0
    6.3301    0.4050    0.0000 H   0  0  0  0  0  0  0  0  0  0  0  0
    7.1962    1.9050    0.0000 H   0  0  0  0  0  0  0  0  0  0  0  0
    8.2700    0.2850    0.0000 H   0  0  0  0  0  0  0  0  0  0  0  0
  1 18  1  0  0  0  0
  1 21  1  0  0  0  0
  2 20  1  0  0  0  0
  2 22  1  0  0  0  0
 21  3  1  1  0  0  0
  3 25  1  0  0  0  0
 22  4  1  1  0  0  0
  4 26  1  0  0  0  0
  5 13  1  0  0  0  0
  5 47  1  0  0  0  0
 14  6  1  1  0  0  0
  6 48  1  0  0  0  0
 15  7  1  1  0  0  0
  7 49  1  0  0  0  0
 16  8  1  1  0  0  0
  8 50  1  0  0  0  0
  9 17  1  0  0  0  0
  9 51  1  0  0  0  0
 10 19  1  0  0  0  0
 10 52  1  0  0  0  0
 11 23  1  0  0  0  0
 11 57  1  0  0  0  0
 12 24  1  0  0  0  0
 12 58  1  0  0  0  0
 13 14  1  0  0  0  0
 13 17  1  0  0  0  0
 13 33  1  0  0  0  0
 14 18  1  0  0  0  0
 14 34  1  0  0  0  0
 15 16  1  0  0  0  0
 15 19  1  0  0  0  0
 15 35  1  0  0  0  0
 16 20  1  0  0  0  0
 16 36  1  0  0  0  0
 17 21  1  0  0  0  0
 17 37  1  0  0  0  0
 18 23  1  0  0  0  0
 18 38  1  0  0  0  0
 19 22  1  0  0  0  0
 19 39  1  0  0  0  0
 20 24  1  0  0  0  0
 20 40  1  0  0  0  0
 21 41  1  0  0  0  0
 22 42  1  0  0  0  0
 23 43  1  0  0  0  0
 23 44  1  0  0  0  0
 24 45  1  0  0  0  0
 24 46  1  0  0  0  0
 25 27  1  0  0  0  0
 25 53  1  0  0  0  0
 25 54  1  0  0  0  0
 26 28  1  0  0  0  0
 26 55  1  0  0  0  0
 26 56  1  0  0  0  0
 27 29  1  0  0  0  0
 27 59  1  0  0  0  0
 27 60  1  0  0  0  0
 28 30  1  0  0  0  0
 28 61  1  0  0  0  0
 28 62  1  0  0  0  0
 29 31  2  0  0  0  0
 29 63  1  0  0  0  0
 30 32  2  0  0  0  0
 30 64  1  0  0  0  0
 31 32  1  0  0  0  0
 31 65  1  0  0  0  0
 32 66  1  0  0  0  0
M  END
> <PUBCHEM_COMPOUND_CID>
59760910

> <PUBCHEM_COMPOUND_CANONICALIZED>
1

> <PUBCHEM_CACTVS_COMPLEXITY>
537

> <PUBCHEM_CACTVS_HBOND_ACCEPTOR>
12

> <PUBCHEM_CACTVS_HBOND_DONOR>
8

> <PUBCHEM_CACTVS_ROTATABLE_BOND>
11

> <PUBCHEM_CACTVS_SUBSKEYS>
AAADcfB4PAAAAAAAAAAAAAAAAAAAAAAAAAAkSAAAAAAAAAAAAAAAGgAACAAACBSwgAMACAAABgCAACBCAAAAAAAgAAAICAAAAAgZEAIAAQAiQAAFQAAPgAPAYAwAAAAAAAAAAAAAAAAAAAAAAAAAAAAAAA==

> <PUBCHEM_IUPAC_OPENEYE_NAME>
(3S,6S)-2-(hydroxymethyl)-6-[(3Z,5E)-8-[(2R,4S,5R)-3,4,5-trihydroxy-6-(hydroxymethyl)tetrahydropyran-2-yl]oxyocta-3,5-dienoxy]tetrahydropyran-3,4,5-triol

> <PUBCHEM_IUPAC_CAS_NAME>
(3S,6S)-2-(hydroxymethyl)-6-[(3Z,5E)-8-[[(2R,4S,5R)-3,4,5-trihydroxy-6-(hydroxymethyl)-2-oxanyl]oxy]octa-3,5-dienoxy]oxane-3,4,5-triol

> <PUBCHEM_IUPAC_NAME_MARKUP>
(3<I>S</I>,6<I>S</I>)-2-(hydroxymethyl)-6-[(3<I>Z</I>,5<I>E</I>)-8-[(2<I>R</I>,4<I>S</I>,5<I>R</I>)-3,4,5-trihydroxy-6-(hydroxymethyl)oxan-2-yl]oxyocta-3,5-dienoxy]oxane-3,4,5-triol

> <PUBCHEM_IUPAC_NAME>
(3S,6S)-2-(hydroxymethyl)-6-[(3Z,5E)-8-[(2R,4S,5R)-3,4,5-trihydroxy-6-(hydroxymethyl)oxan-2-yl]oxyocta-3,5-dienoxy]oxane-3,4,5-triol

> <PUBCHEM_IUPAC_SYSTEMATIC_NAME>
(3S,6S)-2-(hydroxymethyl)-6-[(3Z,5E)-8-[(2R,4S,5R)-6-(hydroxymethyl)-3,4,5-tris(oxidanyl)oxan-2-yl]oxyocta-3,5-dienoxy]oxane-3,4,5-triol

> <PUBCHEM_IUPAC_TRADITIONAL_NAME>
(3S,6S)-2-methylol-6-[(3Z,5E)-8-[(2R,4S,5R)-3,4,5-trihydroxy-6-methylol-tetrahydropyran-2-yl]oxyocta-3,5-dienoxy]tetrahydropyran-3,4,5-triol

> <PUBCHEM_IUPAC_INCHI>
InChI=1S/C20H34O12/c21-9-11-13(23)15(25)17(27)19(31-11)29-7-5-3-1-2-4-6-8-30-20-18(28)16(26)14(24)12(10-22)32-20/h1-4,11-28H,5-10H2/b3-1-,4-2+/t11?,12?,13-,14+,15?,16+,17?,18?,19+,20-/m1/s1

> <PUBCHEM_IUPAC_INCHIKEY>
BDYREKMJOQGJRW-UCGULMBHSA-N

> <PUBCHEM_XLOGP3_AA>
-2.5

> <PUBCHEM_EXACT_MASS>
466.20502652

> <PUBCHEM_MOLECULAR_FORMULA>
C20H34O12

> <PUBCHEM_MOLECULAR_WEIGHT>
466.5

> <PUBCHEM_OPENEYE_CAN_SMILES>
C(COC1C(C(C(C(O1)CO)O)O)O)C=CC=CCCOC2C(C(C(C(O2)CO)O)O)O

> <PUBCHEM_OPENEYE_ISO_SMILES>
C(CO[C@H]1C([C@H]([C@H](C(O1)CO)O)O)O)/C=C/C=C\CCO[C@@H]2C(C([C@@H](C(O2)CO)O)O)O

> <PUBCHEM_CACTVS_TPSA>
199

> <PUBCHEM_MONOISOTOPIC_WEIGHT>
466.20502652

> <PUBCHEM_TOTAL_CHARGE>
0

> <PUBCHEM_HEAVY_ATOM_COUNT>
32

> <PUBCHEM_ATOM_DEF_STEREO_COUNT>
5

> <PUBCHEM_ATOM_UDEF_STEREO_COUNT>
5

> <PUBCHEM_BOND_DEF_STEREO_COUNT>
2

> <PUBCHEM_BOND_UDEF_STEREO_COUNT>
0

> <PUBCHEM_ISOTOPIC_ATOM_COUNT>
0

> <PUBCHEM_COMPONENT_COUNT>
1

> <PUBCHEM_CACTVS_TAUTO_COUNT>
-1

> <PUBCHEM_COORDINATE_TYPE>
1
5
255

> <PUBCHEM_BONDANNOTATIONS>
19  10  3
18  23  3
20  24  3
21  3  5
22  4  5
13  5  3
14  6  5
15  7  5
16  8  5
17  9  3

$$$$
