 
  -OEChem-10192104172D

 52 55  0     1  0  0  0  0  0999 V2000
   11.1441    1.3102    0.0000 O   0  0  0  0  0  0  0  0  0  0  0  0
    2.0000   -1.3102    0.0000 O   0  0  0  0  0  0  0  0  0  0  0  0
   10.8653   -0.4499    0.0000 O   0  0  0  0  0  0  0  0  0  0  0  0
    2.2788    0.4499    0.0000 O   0  0  0  0  0  0  0  0  0  0  0  0
   10.8653    3.0702    0.0000 O   0  0  0  0  0  0  0  0  0  0  0  0
    2.2788   -3.0702    0.0000 O   0  0  0  0  0  0  0  0  0  0  0  0
    9.6053    0.8101    0.0000 C   0  0  3  0  0  0  0  0  0  0  0  0
    3.5388   -0.8101    0.0000 C   0  0  3  0  0  0  0  0  0  0  0  0
    9.6053    1.8102    0.0000 C   0  0  3  0  0  0  0  0  0  0  0  0
    3.5388   -1.8102    0.0000 C   0  0  3  0  0  0  0  0  0  0  0  0
    8.5970    0.8060    0.0000 C   0  0  3  0  0  0  0  0  0  0  0  0
    4.5471   -0.8060    0.0000 C   0  0  3  0  0  0  0  0  0  0  0  0
    8.5970    1.8143    0.0000 C   0  0  0  0  0  0  0  0  0  0  0  0
    4.5471   -1.8143    0.0000 C   0  0  0  0  0  0  0  0  0  0  0  0
    7.8913    0.0974    0.0000 C   0  0  0  0  0  0  0  0  0  0  0  0
    5.2528   -0.0974    0.0000 C   0  0  0  0  0  0  0  0  0  0  0  0
    9.6053   -0.1899    0.0000 C   0  0  0  0  0  0  0  0  0  0  0  0
    3.5388    0.1899    0.0000 C   0  0  0  0  0  0  0  0  0  0  0  0
   10.5563    0.5011    0.0000 C   0  0  0  0  0  0  0  0  0  0  0  0
    2.5878   -0.5011    0.0000 C   0  0  0  0  0  0  0  0  0  0  0  0
    6.9249    0.3543    0.0000 C   0  0  0  0  0  0  0  0  0  0  0  0
    6.2192   -0.3543    0.0000 C   0  0  0  0  0  0  0  0  0  0  0  0
   10.5563    2.1192    0.0000 C   0  0  0  0  0  0  0  0  0  0  0  0
    2.5878   -2.1192    0.0000 C   0  0  0  0  0  0  0  0  0  0  0  0
    9.6053    2.8102    0.0000 C   0  0  0  0  0  0  0  0  0  0  0  0
    3.5388   -2.8102    0.0000 C   0  0  0  0  0  0  0  0  0  0  0  0
    8.8360    0.2339    0.0000 H   0  0  0  0  0  0  0  0  0  0  0  0
    5.1202   -1.0427    0.0000 H   0  0  0  0  0  0  0  0  0  0  0  0
    8.5987    2.4343    0.0000 H   0  0  0  0  0  0  0  0  0  0  0  0
    7.9770    1.8151    0.0000 H   0  0  0  0  0  0  0  0  0  0  0  0
    4.5454   -2.4343    0.0000 H   0  0  0  0  0  0  0  0  0  0  0  0
    5.1671   -1.8151    0.0000 H   0  0  0  0  0  0  0  0  0  0  0  0
    7.6305   -0.4650    0.0000 H   0  0  0  0  0  0  0  0  0  0  0  0
    8.3999   -0.2571    0.0000 H   0  0  0  0  0  0  0  0  0  0  0  0
    5.5136    0.4650    0.0000 H   0  0  0  0  0  0  0  0  0  0  0  0
    4.7442    0.2571    0.0000 H   0  0  0  0  0  0  0  0  0  0  0  0
    8.9853   -0.1899    0.0000 H   0  0  0  0  0  0  0  0  0  0  0  0
    9.6053   -0.8099    0.0000 H   0  0  0  0  0  0  0  0  0  0  0  0
   10.2253   -0.1899    0.0000 H   0  0  0  0  0  0  0  0  0  0  0  0
    4.1588    0.1899    0.0000 H   0  0  0  0  0  0  0  0  0  0  0  0
    3.5388    0.8099    0.0000 H   0  0  0  0  0  0  0  0  0  0  0  0
    2.9188    0.1899    0.0000 H   0  0  0  0  0  0  0  0  0  0  0  0
    7.1858    0.9167    0.0000 H   0  0  0  0  0  0  0  0  0  0  0  0
    6.4163    0.7089    0.0000 H   0  0  0  0  0  0  0  0  0  0  0  0
    5.9584   -0.9167    0.0000 H   0  0  0  0  0  0  0  0  0  0  0  0
    6.7278   -0.7089    0.0000 H   0  0  0  0  0  0  0  0  0  0  0  0
   10.2253    2.8102    0.0000 H   0  0  0  0  0  0  0  0  0  0  0  0
    9.6053    3.4302    0.0000 H   0  0  0  0  0  0  0  0  0  0  0  0
    8.9853    2.8102    0.0000 H   0  0  0  0  0  0  0  0  0  0  0  0
    2.9188   -2.8102    0.0000 H   0  0  0  0  0  0  0  0  0  0  0  0
    3.5388   -3.4302    0.0000 H   0  0  0  0  0  0  0  0  0  0  0  0
    4.1588   -2.8102    0.0000 H   0  0  0  0  0  0  0  0  0  0  0  0
  1 19  1  0  0  0  0
  1 23  1  0  0  0  0
  2 20  1  0  0  0  0
  2 24  1  0  0  0  0
  3 19  2  0  0  0  0
  4 20  2  0  0  0  0
  5 23  2  0  0  0  0
  6 24  2  0  0  0  0
  7  9  1  0  0  0  0
  7 11  1  0  0  0  0
  7 17  1  0  0  0  0
  7 19  1  0  0  0  0
  8 10  1  0  0  0  0
  8 12  1  0  0  0  0
  8 18  1  0  0  0  0
  8 20  1  0  0  0  0
  9 13  1  0  0  0  0
  9 23  1  0  0  0  0
  9 25  1  0  0  0  0
 10 14  1  0  0  0  0
 10 24  1  0  0  0  0
 10 26  1  0  0  0  0
 11 13  1  0  0  0  0
 11 15  1  0  0  0  0
 11 27  1  0  0  0  0
 12 14  1  0  0  0  0
 12 16  1  0  0  0  0
 12 28  1  0  0  0  0
 13 29  1  0  0  0  0
 13 30  1  0  0  0  0
 14 31  1  0  0  0  0
 14 32  1  0  0  0  0
 15 21  1  0  0  0  0
 15 33  1  0  0  0  0
 15 34  1  0  0  0  0
 16 22  1  0  0  0  0
 16 35  1  0  0  0  0
 16 36  1  0  0  0  0
 17 37  1  0  0  0  0
 17 38  1  0  0  0  0
 17 39  1  0  0  0  0
 18 40  1  0  0  0  0
 18 41  1  0  0  0  0
 18 42  1  0  0  0  0
 21 22  1  0  0  0  0
 21 43  1  0  0  0  0
 21 44  1  0  0  0  0
 22 45  1  0  0  0  0
 22 46  1  0  0  0  0
 25 47  1  0  0  0  0
 25 48  1  0  0  0  0
 25 49  1  0  0  0  0
 26 50  1  0  0  0  0
 26 51  1  0  0  0  0
 26 52  1  0  0  0  0
M  END
> <PUBCHEM_COMPOUND_CID>
53681619

> <PUBCHEM_COMPOUND_CANONICALIZED>
1

> <PUBCHEM_CACTVS_COMPLEXITY>
681

> <PUBCHEM_CACTVS_HBOND_ACCEPTOR>
6

> <PUBCHEM_CACTVS_HBOND_DONOR>
0

> <PUBCHEM_CACTVS_ROTATABLE_BOND>
5

> <PUBCHEM_CACTVS_SUBSKEYS>
AAADceB4OAAAAAAAAAAAAAAAAABgwSJAAAAAAAAABIkAAAAAAAAAGgAAAAAADwCAgAACCAAABAAIAACQCAAAAAAAAAAAAAEAAAAAABIAAAACAAAEAAAAAAGLyPCPgAAAAAAAAAAAAAAAAAAAAAAAAAAAAA==

> <PUBCHEM_IUPAC_OPENEYE_NAME>
6-[4-(1,5-dimethyl-2,4-dioxo-3-oxabicyclo[3.2.0]heptan-6-yl)butyl]-1,5-dimethyl-3-oxabicyclo[3.2.0]heptane-2,4-dione

> <PUBCHEM_IUPAC_CAS_NAME>
6-[4-(1,5-dimethyl-2,4-dioxo-3-oxabicyclo[3.2.0]heptan-6-yl)butyl]-1,5-dimethyl-3-oxabicyclo[3.2.0]heptane-2,4-dione

> <PUBCHEM_IUPAC_NAME_MARKUP>
6-[4-(1,5-dimethyl-2,4-dioxo-3-oxabicyclo[3.2.0]heptan-6-yl)butyl]-1,5-dimethyl-3-oxabicyclo[3.2.0]heptane-2,4-dione

> <PUBCHEM_IUPAC_NAME>
6-[4-(1,5-dimethyl-2,4-dioxo-3-oxabicyclo[3.2.0]heptan-6-yl)butyl]-1,5-dimethyl-3-oxabicyclo[3.2.0]heptane-2,4-dione

> <PUBCHEM_IUPAC_SYSTEMATIC_NAME>
6-[4-[1,5-dimethyl-2,4-bis(oxidanylidene)-3-oxabicyclo[3.2.0]heptan-6-yl]butyl]-1,5-dimethyl-3-oxabicyclo[3.2.0]heptane-2,4-dione

> <PUBCHEM_IUPAC_TRADITIONAL_NAME>
6-[4-(2,4-diketo-1,5-dimethyl-3-oxabicyclo[3.2.0]heptan-6-yl)butyl]-1,5-dimethyl-3-oxabicyclo[3.2.0]heptane-2,4-quinone

> <PUBCHEM_IUPAC_INCHI>
InChI=1S/C20H26O6/c1-17-9-11(19(17,3)15(23)25-13(17)21)7-5-6-8-12-10-18(2)14(22)26-16(24)20(12,18)4/h11-12H,5-10H2,1-4H3

> <PUBCHEM_IUPAC_INCHIKEY>
BGZUZWGDPXZLFS-UHFFFAOYSA-N

> <PUBCHEM_XLOGP3_AA>
3.4

> <PUBCHEM_EXACT_MASS>
362.17293854

> <PUBCHEM_MOLECULAR_FORMULA>
C20H26O6

> <PUBCHEM_MOLECULAR_WEIGHT>
362.4

> <PUBCHEM_OPENEYE_CAN_SMILES>
CC12CC(C1(C(=O)OC2=O)C)CCCCC3CC4(C3(C(=O)OC4=O)C)C

> <PUBCHEM_OPENEYE_ISO_SMILES>
CC12CC(C1(C(=O)OC2=O)C)CCCCC3CC4(C3(C(=O)OC4=O)C)C

> <PUBCHEM_CACTVS_TPSA>
86.7

> <PUBCHEM_MONOISOTOPIC_WEIGHT>
362.17293854

> <PUBCHEM_TOTAL_CHARGE>
0

> <PUBCHEM_HEAVY_ATOM_COUNT>
26

> <PUBCHEM_ATOM_DEF_STEREO_COUNT>
0

> <PUBCHEM_ATOM_UDEF_STEREO_COUNT>
6

> <PUBCHEM_BOND_DEF_STEREO_COUNT>
0

> <PUBCHEM_BOND_UDEF_STEREO_COUNT>
0

> <PUBCHEM_ISOTOPIC_ATOM_COUNT>
0

> <PUBCHEM_COMPONENT_COUNT>
1

> <PUBCHEM_CACTVS_TAUTO_COUNT>
-1

> <PUBCHEM_COORDINATE_TYPE>
1
5
255

> <PUBCHEM_BONDANNOTATIONS>
10  26  3
11  15  3
12  16  3
7  17  3
8  18  3
9  25  3

$$$$
