 
  -OEChem-10192103322D

 27 26  0     1  0  0  0  0  0999 V2000
    5.1350    1.1550    0.0000 O   0  0  0  0  0  0  0  0  0  0  0  0
    2.5369    0.6550    0.0000 O   0  0  0  0  0  0  0  0  0  0  0  0
    7.7331    0.6550    0.0000 O   0  0  0  0  0  0  0  0  0  0  0  0
    3.4030    2.1550    0.0000 O   0  0  0  0  0  0  0  0  0  0  0  0
    6.8671    2.1550    0.0000 O   0  0  0  0  0  0  0  0  0  0  0  0
    3.4030   -1.8450    0.0000 O   0  0  0  0  0  0  0  0  0  0  0  0
    6.8671   -1.8450    0.0000 O   0  0  0  0  0  0  0  0  0  0  0  0
    2.5369   -0.3450    0.0000 O   0  0  0  0  0  0  0  0  0  0  0  0
    7.7331   -0.3450    0.0000 O   0  0  0  0  0  0  0  0  0  0  0  0
    4.2690    0.6550    0.0000 C   0  0  3  0  0  0  0  0  0  0  0  0
    6.0010    0.6550    0.0000 C   0  0  3  0  0  0  0  0  0  0  0  0
    4.2690   -0.3450    0.0000 C   0  0  0  0  0  0  0  0  0  0  0  0
    6.0010   -0.3450    0.0000 C   0  0  0  0  0  0  0  0  0  0  0  0
    3.4030    1.1550    0.0000 C   0  0  0  0  0  0  0  0  0  0  0  0
    6.8671    1.1550    0.0000 C   0  0  0  0  0  0  0  0  0  0  0  0
    3.4030   -0.8450    0.0000 C   0  0  0  0  0  0  0  0  0  0  0  0
    6.8671   -0.8450    0.0000 C   0  0  0  0  0  0  0  0  0  0  0  0
    4.2690    1.2750    0.0000 H   0  0  0  0  0  0  0  0  0  0  0  0
    5.4641    0.3450    0.0000 H   0  0  0  0  0  0  0  0  0  0  0  0
    4.4810   -0.9276    0.0000 H   0  0  0  0  0  0  0  0  0  0  0  0
    4.8796   -0.2373    0.0000 H   0  0  0  0  0  0  0  0  0  0  0  0
    5.3905   -0.2373    0.0000 H   0  0  0  0  0  0  0  0  0  0  0  0
    5.7890   -0.9276    0.0000 H   0  0  0  0  0  0  0  0  0  0  0  0
    2.0000    0.9650    0.0000 H   0  0  0  0  0  0  0  0  0  0  0  0
    8.2700    0.9650    0.0000 H   0  0  0  0  0  0  0  0  0  0  0  0
    2.8660   -2.1550    0.0000 H   0  0  0  0  0  0  0  0  0  0  0  0
    7.4040   -2.1550    0.0000 H   0  0  0  0  0  0  0  0  0  0  0  0
  1 10  1  0  0  0  0
  1 11  1  0  0  0  0
  2 14  1  0  0  0  0
  2 24  1  0  0  0  0
  3 15  1  0  0  0  0
  3 25  1  0  0  0  0
  4 14  2  0  0  0  0
  5 15  2  0  0  0  0
  6 16  1  0  0  0  0
  6 26  1  0  0  0  0
  7 17  1  0  0  0  0
  7 27  1  0  0  0  0
  8 16  2  0  0  0  0
  9 17  2  0  0  0  0
 10 12  1  0  0  0  0
 10 14  1  0  0  0  0
 10 18  1  0  0  0  0
 11 13  1  0  0  0  0
 11 15  1  0  0  0  0
 11 19  1  0  0  0  0
 12 16  1  0  0  0  0
 12 20  1  0  0  0  0
 12 21  1  0  0  0  0
 13 17  1  0  0  0  0
 13 22  1  0  0  0  0
 13 23  1  0  0  0  0
M  END
> <PUBCHEM_COMPOUND_CID>
23887

> <PUBCHEM_COMPOUND_CANONICALIZED>
1

> <PUBCHEM_CACTVS_COMPLEXITY>
302

> <PUBCHEM_CACTVS_HBOND_ACCEPTOR>
9

> <PUBCHEM_CACTVS_HBOND_DONOR>
4

> <PUBCHEM_CACTVS_ROTATABLE_BOND>
8

> <PUBCHEM_CACTVS_SUBSKEYS>
AAADccBwPAAAAAAAAAAAAAAAAAAAAAAAAAAAAAAAAAAAAAAAAAAAGgAACAAACBSggAIACAAABgAIAACQCAIAAAAAAAAAAAFAAAABABQAAAQCQAAFIAADAABDAAAAAAAAAAAAAAAAAAAAAAAAAAAAAAAAAA==

> <PUBCHEM_IUPAC_OPENEYE_NAME>
2-(1,2-dicarboxyethoxy)butanedioic acid

> <PUBCHEM_IUPAC_CAS_NAME>
2-(1,2-dicarboxyethoxy)butanedioic acid

> <PUBCHEM_IUPAC_NAME_MARKUP>
2-(1,2-dicarboxyethoxy)butanedioic acid

> <PUBCHEM_IUPAC_NAME>
2-(1,2-dicarboxyethoxy)butanedioic acid

> <PUBCHEM_IUPAC_SYSTEMATIC_NAME>
2-[1,4-bis(oxidanyl)-1,4-bis(oxidanylidene)butan-2-yl]oxybutanedioic acid

> <PUBCHEM_IUPAC_TRADITIONAL_NAME>
2-(1,2-dicarboxyethoxy)succinic acid

> <PUBCHEM_IUPAC_INCHI>
InChI=1S/C8H10O9/c9-5(10)1-3(7(13)14)17-4(8(15)16)2-6(11)12/h3-4H,1-2H2,(H,9,10)(H,11,12)(H,13,14)(H,15,16)

> <PUBCHEM_IUPAC_INCHIKEY>
CFPOJWPDQWJEMO-UHFFFAOYSA-N

> <PUBCHEM_XLOGP3_AA>
-1.7

> <PUBCHEM_EXACT_MASS>
250.03248189

> <PUBCHEM_MOLECULAR_FORMULA>
C8H10O9

> <PUBCHEM_MOLECULAR_WEIGHT>
250.16

> <PUBCHEM_OPENEYE_CAN_SMILES>
C(C(C(=O)O)OC(CC(=O)O)C(=O)O)C(=O)O

> <PUBCHEM_OPENEYE_ISO_SMILES>
C(C(C(=O)O)OC(CC(=O)O)C(=O)O)C(=O)O

> <PUBCHEM_CACTVS_TPSA>
158

> <PUBCHEM_MONOISOTOPIC_WEIGHT>
250.03248189

> <PUBCHEM_TOTAL_CHARGE>
0

> <PUBCHEM_HEAVY_ATOM_COUNT>
17

> <PUBCHEM_ATOM_DEF_STEREO_COUNT>
0

> <PUBCHEM_ATOM_UDEF_STEREO_COUNT>
2

> <PUBCHEM_BOND_DEF_STEREO_COUNT>
0

> <PUBCHEM_BOND_UDEF_STEREO_COUNT>
0

> <PUBCHEM_ISOTOPIC_ATOM_COUNT>
0

> <PUBCHEM_COMPONENT_COUNT>
1

> <PUBCHEM_CACTVS_TAUTO_COUNT>
1

> <PUBCHEM_COORDINATE_TYPE>
1
5
255

> <PUBCHEM_BONDANNOTATIONS>
10  12  3
11  13  3

$$$$
