 
  -OEChem-10192104192D

 20 20  0     0  0  0  0  0  0999 V2000
    2.8660    0.6550    0.0000 O   0  0  0  0  0  0  0  0  0  0  0  0
    4.5981    1.6550    0.0000 O   0  0  0  0  0  0  0  0  0  0  0  0
    2.8660   -1.3450    0.0000 O   0  0  0  0  0  0  0  0  0  0  0  0
    7.1962    0.1550    0.0000 O   0  0  0  0  0  0  0  0  0  0  0  0
    3.7320    0.1550    0.0000 C   0  0  0  0  0  0  0  0  0  0  0  0
    4.5981    0.6550    0.0000 C   0  0  0  0  0  0  0  0  0  0  0  0
    5.4641    0.1550    0.0000 C   0  0  0  0  0  0  0  0  0  0  0  0
    3.7320   -0.8450    0.0000 C   0  0  0  0  0  0  0  0  0  0  0  0
    5.4641   -0.8450    0.0000 C   0  0  0  0  0  0  0  0  0  0  0  0
    4.5981   -1.3450    0.0000 C   0  0  0  0  0  0  0  0  0  0  0  0
    6.3301    0.6550    0.0000 C   0  0  0  0  0  0  0  0  0  0  0  0
    2.0000    0.1550    0.0000 C   0  0  0  0  0  0  0  0  0  0  0  0
    6.0010   -1.1550    0.0000 H   0  0  0  0  0  0  0  0  0  0  0  0
    4.5981   -1.9650    0.0000 H   0  0  0  0  0  0  0  0  0  0  0  0
    6.3301    1.2750    0.0000 H   0  0  0  0  0  0  0  0  0  0  0  0
    1.6900    0.6919    0.0000 H   0  0  0  0  0  0  0  0  0  0  0  0
    1.4631   -0.1550    0.0000 H   0  0  0  0  0  0  0  0  0  0  0  0
    2.3100   -0.3819    0.0000 H   0  0  0  0  0  0  0  0  0  0  0  0
    4.0611    1.9650    0.0000 H   0  0  0  0  0  0  0  0  0  0  0  0
    2.8660   -1.9650    0.0000 H   0  0  0  0  0  0  0  0  0  0  0  0
  1  5  1  0  0  0  0
  1 12  1  0  0  0  0
  2  6  1  0  0  0  0
  2 19  1  0  0  0  0
  3  8  1  0  0  0  0
  3 20  1  0  0  0  0
  4 11  2  0  0  0  0
  5  6  1  0  0  0  0
  5  8  2  0  0  0  0
  6  7  2  0  0  0  0
  7  9  1  0  0  0  0
  7 11  1  0  0  0  0
  8 10  1  0  0  0  0
  9 10  2  0  0  0  0
  9 13  1  0  0  0  0
 10 14  1  0  0  0  0
 11 15  1  0  0  0  0
 12 16  1  0  0  0  0
 12 17  1  0  0  0  0
 12 18  1  0  0  0  0
M  END
> <PUBCHEM_COMPOUND_CID>
11275227

> <PUBCHEM_COMPOUND_CANONICALIZED>
1

> <PUBCHEM_CACTVS_COMPLEXITY>
159

> <PUBCHEM_CACTVS_HBOND_ACCEPTOR>
4

> <PUBCHEM_CACTVS_HBOND_DONOR>
2

> <PUBCHEM_CACTVS_ROTATABLE_BOND>
2

> <PUBCHEM_CACTVS_SUBSKEYS>
AAADccBwOAAAAAAAAAAAAAAAAAAAAAAAAAAwAAAAAAAAAAABAAAAGgAACAAADASgmAIyBoAABgCIAihSgAACCAAkIAAIiAEGiMgNJzaGNRqAcWMl4BULuYeK7DTOIAABCAAIQABAAAIQABCAAAAAAAAAAA==

> <PUBCHEM_IUPAC_OPENEYE_NAME>
2,4-dihydroxy-3-methoxy-benzaldehyde

> <PUBCHEM_IUPAC_CAS_NAME>
2,4-dihydroxy-3-methoxybenzaldehyde

> <PUBCHEM_IUPAC_NAME_MARKUP>
2,4-dihydroxy-3-methoxybenzaldehyde

> <PUBCHEM_IUPAC_NAME>
2,4-dihydroxy-3-methoxybenzaldehyde

> <PUBCHEM_IUPAC_SYSTEMATIC_NAME>
3-methoxy-2,4-bis(oxidanyl)benzaldehyde

> <PUBCHEM_IUPAC_TRADITIONAL_NAME>
2,4-dihydroxy-3-methoxy-benzaldehyde

> <PUBCHEM_IUPAC_INCHI>
InChI=1S/C8H8O4/c1-12-8-6(10)3-2-5(4-9)7(8)11/h2-4,10-11H,1H3

> <PUBCHEM_IUPAC_INCHIKEY>
HOFPWODHZJNTBF-UHFFFAOYSA-N

> <PUBCHEM_XLOGP3>
1

> <PUBCHEM_EXACT_MASS>
168.04225873

> <PUBCHEM_MOLECULAR_FORMULA>
C8H8O4

> <PUBCHEM_MOLECULAR_WEIGHT>
168.15

> <PUBCHEM_OPENEYE_CAN_SMILES>
COC1=C(C=CC(=C1O)C=O)O

> <PUBCHEM_OPENEYE_ISO_SMILES>
COC1=C(C=CC(=C1O)C=O)O

> <PUBCHEM_CACTVS_TPSA>
66.8

> <PUBCHEM_MONOISOTOPIC_WEIGHT>
168.04225873

> <PUBCHEM_TOTAL_CHARGE>
0

> <PUBCHEM_HEAVY_ATOM_COUNT>
12

> <PUBCHEM_ATOM_DEF_STEREO_COUNT>
0

> <PUBCHEM_ATOM_UDEF_STEREO_COUNT>
0

> <PUBCHEM_BOND_DEF_STEREO_COUNT>
0

> <PUBCHEM_BOND_UDEF_STEREO_COUNT>
0

> <PUBCHEM_ISOTOPIC_ATOM_COUNT>
0

> <PUBCHEM_COMPONENT_COUNT>
1

> <PUBCHEM_CACTVS_TAUTO_COUNT>
-1

> <PUBCHEM_COORDINATE_TYPE>
1
5
255

> <PUBCHEM_BONDANNOTATIONS>
5  6  8
5  8  8
6  7  8
7  9  8
8  10  8
9  10  8

$$$$
