 
  -OEChem-10192103492D

 70 74  0     1  0  0  0  0  0999 V2000
    6.2686   -0.0982    0.0000 O   0  0  0  0  0  0  0  0  0  0  0  0
    6.9066    2.9035    0.0000 O   0  0  0  0  0  0  0  0  0  0  0  0
    8.9142   -2.6914    0.0000 O   0  0  0  0  0  0  0  0  0  0  0  0
    7.1821   -2.6914    0.0000 O   0  0  0  0  0  0  0  0  0  0  0  0
   10.6462    0.3086    0.0000 O   0  0  0  0  0  0  0  0  0  0  0  0
    8.9142   -4.6914    0.0000 O   0  0  0  0  0  0  0  0  0  0  0  0
    7.1821   -5.6914    0.0000 O   0  0  0  0  0  0  0  0  0  0  0  0
    5.4501   -4.6914    0.0000 O   0  0  0  0  0  0  0  0  0  0  0  0
    4.2712    5.5029    0.0000 O   0  0  0  0  0  0  0  0  0  0  0  0
   10.6462   -1.6914    0.0000 O   0  0  0  0  0  0  0  0  0  0  0  0
    2.5375    4.5059    0.0000 O   0  0  0  0  0  0  0  0  0  0  0  0
    4.5841   -3.1914    0.0000 O   0  0  0  0  0  0  0  0  0  0  0  0
    7.0776    1.3031    0.0000 C   0  0  1  0  0  0  0  0  0  0  0  0
    6.0994    1.5110    0.0000 C   0  0  1  0  0  0  0  0  0  0  0  0
    7.1821    0.3086    0.0000 C   0  0  1  0  0  0  0  0  0  0  0  0
    5.9981    2.4999    0.0000 C   0  0  1  0  0  0  0  0  0  0  0  0
    5.5994    0.6450    0.0000 C   0  0  0  0  0  0  0  0  0  0  0  0
    7.5724    2.1653    0.0000 C   0  0  0  0  0  0  0  0  0  0  0  0
    8.0482   -0.1914    0.0000 C   0  0  0  0  0  0  0  0  0  0  0  0
    5.1330    3.0014    0.0000 C   0  0  0  0  0  0  0  0  0  0  0  0
    8.0482   -1.1914    0.0000 C   0  0  0  0  0  0  0  0  0  0  0  0
    8.9142    0.3086    0.0000 C   0  0  0  0  0  0  0  0  0  0  0  0
    5.1347    4.0014    0.0000 C   0  0  0  0  0  0  0  0  0  0  0  0
    4.2661    2.5029    0.0000 C   0  0  0  0  0  0  0  0  0  0  0  0
    8.9142   -1.6914    0.0000 C   0  0  0  0  0  0  0  0  0  0  0  0
    8.0482   -3.1914    0.0000 C   0  0  2  0  0  0  0  0  0  0  0  0
    8.0482   -4.1914    0.0000 C   0  0  1  0  0  0  0  0  0  0  0  0
    9.7802   -0.1914    0.0000 C   0  0  0  0  0  0  0  0  0  0  0  0
    7.1821   -4.6914    0.0000 C   0  0  2  0  0  0  0  0  0  0  0  0
    6.3161   -4.1914    0.0000 C   0  0  1  0  0  0  0  0  0  0  0  0
    6.3161   -3.1914    0.0000 C   0  0  1  0  0  0  0  0  0  0  0  0
    9.7802   -1.1914    0.0000 C   0  0  0  0  0  0  0  0  0  0  0  0
    4.2695    4.5029    0.0000 C   0  0  0  0  0  0  0  0  0  0  0  0
    3.4009    3.0044    0.0000 C   0  0  0  0  0  0  0  0  0  0  0  0
    3.4026    4.0044    0.0000 C   0  0  0  0  0  0  0  0  0  0  0  0
    5.4501   -2.6914    0.0000 C   0  0  0  0  0  0  0  0  0  0  0  0
   10.6462    1.3086    0.0000 C   0  0  0  0  0  0  0  0  0  0  0  0
    5.1381    6.0014    0.0000 C   0  0  0  0  0  0  0  0  0  0  0  0
    7.9092    1.1275    0.0000 H   0  0  0  0  0  0  0  0  0  0  0  0
    5.2682    1.6888    0.0000 H   0  0  0  0  0  0  0  0  0  0  0  0
    7.1497   -0.3106    0.0000 H   0  0  0  0  0  0  0  0  0  0  0  0
    6.0314    3.1190    0.0000 H   0  0  0  0  0  0  0  0  0  0  0  0
    5.0979    1.0094    0.0000 H   0  0  0  0  0  0  0  0  0  0  0  0
    5.1846    0.1842    0.0000 H   0  0  0  0  0  0  0  0  0  0  0  0
    8.0747    1.8019    0.0000 H   0  0  0  0  0  0  0  0  0  0  0  0
    7.9866    2.6266    0.0000 H   0  0  0  0  0  0  0  0  0  0  0  0
    7.5112   -1.5014    0.0000 H   0  0  0  0  0  0  0  0  0  0  0  0
    8.9142    0.9286    0.0000 H   0  0  0  0  0  0  0  0  0  0  0  0
    5.6722    4.3105    0.0000 H   0  0  0  0  0  0  0  0  0  0  0  0
    4.2650    1.8829    0.0000 H   0  0  0  0  0  0  0  0  0  0  0  0
    8.0482   -2.5714    0.0000 H   0  0  0  0  0  0  0  0  0  0  0  0
    8.0482   -4.8114    0.0000 H   0  0  0  0  0  0  0  0  0  0  0  0
    6.6452   -5.0014    0.0000 H   0  0  0  0  0  0  0  0  0  0  0  0
    6.3161   -4.8114    0.0000 H   0  0  0  0  0  0  0  0  0  0  0  0
    6.3161   -2.5714    0.0000 H   0  0  0  0  0  0  0  0  0  0  0  0
    2.8634    2.6953    0.0000 H   0  0  0  0  0  0  0  0  0  0  0  0
    5.8486   -2.2165    0.0000 H   0  0  0  0  0  0  0  0  0  0  0  0
    5.0516   -2.2165    0.0000 H   0  0  0  0  0  0  0  0  0  0  0  0
    9.4511   -4.3814    0.0000 H   0  0  0  0  0  0  0  0  0  0  0  0
    7.7191   -6.0014    0.0000 H   0  0  0  0  0  0  0  0  0  0  0  0
    5.4501   -5.3114    0.0000 H   0  0  0  0  0  0  0  0  0  0  0  0
   11.1832   -1.3814    0.0000 H   0  0  0  0  0  0  0  0  0  0  0  0
    2.0000    4.1968    0.0000 H   0  0  0  0  0  0  0  0  0  0  0  0
    4.0471   -2.8814    0.0000 H   0  0  0  0  0  0  0  0  0  0  0  0
   11.2662    1.3086    0.0000 H   0  0  0  0  0  0  0  0  0  0  0  0
   10.6462    1.9286    0.0000 H   0  0  0  0  0  0  0  0  0  0  0  0
   10.0262    1.3086    0.0000 H   0  0  0  0  0  0  0  0  0  0  0  0
    5.4472    5.4639    0.0000 H   0  0  0  0  0  0  0  0  0  0  0  0
    5.6756    6.3105    0.0000 H   0  0  0  0  0  0  0  0  0  0  0  0
    4.8291    6.5389    0.0000 H   0  0  0  0  0  0  0  0  0  0  0  0
  1 15  1  0  0  0  0
  1 17  1  0  0  0  0
  2 16  1  0  0  0  0
  2 18  1  0  0  0  0
  3 25  1  0  0  0  0
 26  3  1  1  0  0  0
  4 26  1  0  0  0  0
  4 31  1  0  0  0  0
  5 28  1  0  0  0  0
  5 37  1  0  0  0  0
 27  6  1  6  0  0  0
  6 59  1  0  0  0  0
 29  7  1  1  0  0  0
  7 60  1  0  0  0  0
 30  8  1  6  0  0  0
  8 61  1  0  0  0  0
  9 33  1  0  0  0  0
  9 38  1  0  0  0  0
 10 32  1  0  0  0  0
 10 62  1  0  0  0  0
 11 35  1  0  0  0  0
 11 63  1  0  0  0  0
 12 36  1  0  0  0  0
 12 64  1  0  0  0  0
 13 14  1  0  0  0  0
 13 15  1  0  0  0  0
 13 18  1  0  0  0  0
 13 39  1  1  0  0  0
 14 16  1  0  0  0  0
 14 17  1  0  0  0  0
 14 40  1  1  0  0  0
 15 19  1  1  0  0  0
 15 41  1  0  0  0  0
 16 20  1  1  0  0  0
 16 42  1  0  0  0  0
 17 43  1  0  0  0  0
 17 44  1  0  0  0  0
 18 45  1  0  0  0  0
 18 46  1  0  0  0  0
 19 21  1  0  0  0  0
 19 22  2  0  0  0  0
 20 23  2  0  0  0  0
 20 24  1  0  0  0  0
 21 25  2  0  0  0  0
 21 47  1  0  0  0  0
 22 28  1  0  0  0  0
 22 48  1  0  0  0  0
 23 33  1  0  0  0  0
 23 49  1  0  0  0  0
 24 34  2  0  0  0  0
 24 50  1  0  0  0  0
 25 32  1  0  0  0  0
 26 27  1  0  0  0  0
 26 51  1  0  0  0  0
 27 29  1  0  0  0  0
 27 52  1  0  0  0  0
 28 32  2  0  0  0  0
 29 30  1  0  0  0  0
 29 53  1  0  0  0  0
 30 31  1  0  0  0  0
 30 54  1  0  0  0  0
 31 36  1  1  0  0  0
 31 55  1  0  0  0  0
 33 35  2  0  0  0  0
 34 35  1  0  0  0  0
 34 56  1  0  0  0  0
 36 57  1  0  0  0  0
 36 58  1  0  0  0  0
 37 65  1  0  0  0  0
 37 66  1  0  0  0  0
 37 67  1  0  0  0  0
 38 68  1  0  0  0  0
 38 69  1  0  0  0  0
 38 70  1  0  0  0  0
M  END
> <PUBCHEM_COMPOUND_CID>
101128590

> <PUBCHEM_COMPOUND_CANONICALIZED>
1

> <PUBCHEM_CACTVS_COMPLEXITY>
773

> <PUBCHEM_CACTVS_HBOND_ACCEPTOR>
12

> <PUBCHEM_CACTVS_HBOND_DONOR>
6

> <PUBCHEM_CACTVS_ROTATABLE_BOND>
7

> <PUBCHEM_CACTVS_SUBSKEYS>
AAADcfB4PAAAAAAAAAAAAAAAAAAAASJAAAA0YIAAAAASAAABQAAAGgAACAAADRSwmAMyDoAABgCAAiBCAAACCAAgIAAIiAAGiIgdNyKGMRqieCOlwBUPuAfA4PwOoAABCAAAQABAAAIQAACAAAAAAAAAAA==

> <PUBCHEM_IUPAC_OPENEYE_NAME>
(2S,3R,4S,5S,6R)-2-[5-[(3S,3aR,6S,6aR)-3-(4-hydroxy-3-methoxy-phenyl)-1,3,3a,4,6,6a-hexahydrofuro[3,4-c]furan-6-yl]-2-hydroxy-3-methoxy-phenoxy]-6-(hydroxymethyl)tetrahydropyran-3,4,5-triol

> <PUBCHEM_IUPAC_CAS_NAME>
(2S,3R,4S,5S,6R)-2-[5-[(3S,3aR,6S,6aR)-3-(4-hydroxy-3-methoxyphenyl)-1,3,3a,4,6,6a-hexahydrofuro[3,4-c]furan-6-yl]-2-hydroxy-3-methoxyphenoxy]-6-(hydroxymethyl)oxane-3,4,5-triol

> <PUBCHEM_IUPAC_NAME_MARKUP>
(2<I>S</I>,3<I>R</I>,4<I>S</I>,5<I>S</I>,6<I>R</I>)-2-[5-[(3<I>S</I>,3<I>a</I><I>R</I>,6<I>S</I>,6<I>a</I><I>R</I>)-3-(4-hydroxy-3-methoxyphenyl)-1,3,3<I>a</I>,4,6,6<I>a</I>-hexahydrofuro[3,4-c]furan-6-yl]-2-hydroxy-3-methoxyphenoxy]-6-(hydroxymethyl)oxane-3,4,5-triol

> <PUBCHEM_IUPAC_NAME>
(2S,3R,4S,5S,6R)-2-[5-[(3S,3aR,6S,6aR)-3-(4-hydroxy-3-methoxyphenyl)-1,3,3a,4,6,6a-hexahydrofuro[3,4-c]furan-6-yl]-2-hydroxy-3-methoxyphenoxy]-6-(hydroxymethyl)oxane-3,4,5-triol

> <PUBCHEM_IUPAC_SYSTEMATIC_NAME>
(2S,3R,4S,5S,6R)-2-[5-[(3S,3aR,6S,6aR)-3-(3-methoxy-4-oxidanyl-phenyl)-1,3,3a,4,6,6a-hexahydrofuro[3,4-c]furan-6-yl]-3-methoxy-2-oxidanyl-phenoxy]-6-(hydroxymethyl)oxane-3,4,5-triol

> <PUBCHEM_IUPAC_TRADITIONAL_NAME>
(2S,3R,4S,5S,6R)-2-[5-[(3S,3aR,6S,6aR)-3-(4-hydroxy-3-methoxy-phenyl)-1,3,3a,4,6,6a-hexahydrofuro[3,4-c]furan-6-yl]-2-hydroxy-3-methoxy-phenoxy]-6-methylol-tetrahydropyran-3,4,5-triol

> <PUBCHEM_IUPAC_INCHI>
InChI=1S/C26H32O12/c1-33-16-5-11(3-4-15(16)28)24-13-9-36-25(14(13)10-35-24)12-6-17(34-2)20(29)18(7-12)37-26-23(32)22(31)21(30)19(8-27)38-26/h3-7,13-14,19,21-32H,8-10H2,1-2H3/t13-,14-,19+,21+,22-,23+,24+,25+,26+/m0/s1

> <PUBCHEM_IUPAC_INCHIKEY>
ULLMKWSLKORCBE-XQVYSOEXSA-N

> <PUBCHEM_XLOGP3_AA>
0.1

> <PUBCHEM_EXACT_MASS>
536.18937645

> <PUBCHEM_MOLECULAR_FORMULA>
C26H32O12

> <PUBCHEM_MOLECULAR_WEIGHT>
536.5

> <PUBCHEM_OPENEYE_CAN_SMILES>
COC1=C(C=CC(=C1)C2C3COC(C3CO2)C4=CC(=C(C(=C4)OC5C(C(C(C(O5)CO)O)O)O)O)OC)O

> <PUBCHEM_OPENEYE_ISO_SMILES>
COC1=C(C=CC(=C1)[C@@H]2[C@H]3CO[C@@H]([C@H]3CO2)C4=CC(=C(C(=C4)O[C@H]5[C@@H]([C@H]([C@@H]([C@H](O5)CO)O)O)O)O)OC)O

> <PUBCHEM_CACTVS_TPSA>
177

> <PUBCHEM_MONOISOTOPIC_WEIGHT>
536.18937645

> <PUBCHEM_TOTAL_CHARGE>
0

> <PUBCHEM_HEAVY_ATOM_COUNT>
38

> <PUBCHEM_ATOM_DEF_STEREO_COUNT>
9

> <PUBCHEM_ATOM_UDEF_STEREO_COUNT>
0

> <PUBCHEM_BOND_DEF_STEREO_COUNT>
0

> <PUBCHEM_BOND_UDEF_STEREO_COUNT>
0

> <PUBCHEM_ISOTOPIC_ATOM_COUNT>
0

> <PUBCHEM_COMPONENT_COUNT>
1

> <PUBCHEM_CACTVS_TAUTO_COUNT>
-1

> <PUBCHEM_COORDINATE_TYPE>
1
5
255

> <PUBCHEM_BONDANNOTATIONS>
13  39  5
14  40  5
15  19  5
16  20  5
19  21  8
19  22  8
20  23  8
20  24  8
21  25  8
22  28  8
23  33  8
24  34  8
25  32  8
28  32  8
26  3  5
31  36  5
33  35  8
34  35  8
27  6  6
29  7  5
30  8  6

$$$$
