 
  -OEChem-10192103342D

 87 92  0     1  0  0  0  0  0999 V2000
    6.8671    0.7246    0.0000 O   0  0  0  0  0  0  0  0  0  0  0  0
    4.2690   -0.7754    0.0000 O   0  0  0  0  0  0  0  0  0  0  0  0
    5.1350    0.7246    0.0000 O   0  0  0  0  0  0  0  0  0  0  0  0
    8.6270    2.7593    0.0000 O   0  0  0  0  0  0  0  0  0  0  0  0
    5.1511   -3.3169    0.0000 O   0  0  0  0  0  0  0  0  0  0  0  0
    6.8671    3.7246    0.0000 O   0  0  0  0  0  0  0  0  0  0  0  0
    6.8671   -2.2754    0.0000 O   0  0  0  0  0  0  0  0  0  0  0  0
    5.1350    2.7246    0.0000 O   0  0  0  0  0  0  0  0  0  0  0  0
    6.8671   -0.2754    0.0000 O   0  0  0  0  0  0  0  0  0  0  0  0
    9.5331    1.2038    0.0000 O   0  0  0  0  0  0  0  0  0  0  0  0
    3.3510   -3.3238    0.0000 O   0  0  0  0  0  0  0  0  0  0  0  0
    7.7331    2.2246    0.0000 C   0  0  1  0  0  0  0  0  0  0  0  0
    5.1350   -2.2754    0.0000 C   0  0  1  0  0  0  0  0  0  0  0  0
    6.8671    2.7246    0.0000 C   0  0  1  0  0  0  0  0  0  0  0  0
    6.0010   -1.7754    0.0000 C   0  0  1  0  0  0  0  0  0  0  0  0
    6.0010    2.2246    0.0000 C   0  0  2  0  0  0  0  0  0  0  0  0
    6.0010   -0.7754    0.0000 C   0  0  2  0  0  0  0  0  0  0  0  0
    7.7331    1.2246    0.0000 C   0  0  1  0  0  0  0  0  0  0  0  0
    4.2690   -1.7754    0.0000 C   0  0  1  0  0  0  0  0  0  0  0  0
    6.0010    1.2246    0.0000 C   0  0  2  0  0  0  0  0  0  0  0  0
    5.1350   -0.2754    0.0000 C   0  0  2  0  0  0  0  0  0  0  0  0
    8.6270    0.6900    0.0000 C   0  0  0  0  0  0  0  0  0  0  0  0
    3.3590   -2.2822    0.0000 C   0  0  0  0  0  0  0  0  0  0  0  0
    9.5331    2.2454    0.0000 C   0  0  1  0  0  0  0  0  0  0  0  0
    4.2530   -3.8446    0.0000 C   0  0  1  0  0  0  0  0  0  0  0  0
   10.3972    2.7488    0.0000 C   0  0  0  0  0  0  0  0  0  0  0  0
    4.2569   -4.8446    0.0000 C   0  0  0  0  0  0  0  0  0  0  0  0
    6.0010    4.2246    0.0000 C   0  0  0  0  0  0  0  0  0  0  0  0
    6.8671   -3.2754    0.0000 C   0  0  0  0  0  0  0  0  0  0  0  0
    4.2690    2.2246    0.0000 C   0  0  0  0  0  0  0  0  0  0  0  0
    7.7331   -0.7754    0.0000 C   0  0  0  0  0  0  0  0  0  0  0  0
   10.3933    3.7488    0.0000 C   0  0  0  0  0  0  0  0  0  0  0  0
    5.1248   -5.3413    0.0000 C   0  0  0  0  0  0  0  0  0  0  0  0
   11.2651    2.2521    0.0000 C   0  0  0  0  0  0  0  0  0  0  0  0
    3.3928   -5.3480    0.0000 C   0  0  0  0  0  0  0  0  0  0  0  0
    6.0010    5.2246    0.0000 C   0  0  0  0  0  0  0  0  0  0  0  0
    7.7331   -3.7754    0.0000 C   0  0  0  0  0  0  0  0  0  0  0  0
    3.4030    2.7246    0.0000 C   0  0  0  0  0  0  0  0  0  0  0  0
    8.5991   -0.2754    0.0000 C   0  0  0  0  0  0  0  0  0  0  0  0
   11.2574    4.2521    0.0000 C   0  0  0  0  0  0  0  0  0  0  0  0
    5.1287   -6.3413    0.0000 C   0  0  0  0  0  0  0  0  0  0  0  0
   12.1292    2.7554    0.0000 C   0  0  0  0  0  0  0  0  0  0  0  0
    3.3966   -6.3480    0.0000 C   0  0  0  0  0  0  0  0  0  0  0  0
   12.1254    3.7554    0.0000 C   0  0  0  0  0  0  0  0  0  0  0  0
    4.2646   -6.8446    0.0000 C   0  0  0  0  0  0  0  0  0  0  0  0
    6.0010    6.2246    0.0000 C   0  0  0  0  0  0  0  0  0  0  0  0
    8.5991   -4.2754    0.0000 C   0  0  0  0  0  0  0  0  0  0  0  0
    2.5369    3.2246    0.0000 C   0  0  0  0  0  0  0  0  0  0  0  0
    9.4651    0.2246    0.0000 C   0  0  0  0  0  0  0  0  0  0  0  0
    8.4725    1.8053    0.0000 H   0  0  0  0  0  0  0  0  0  0  0  0
    5.8744   -2.6947    0.0000 H   0  0  0  0  0  0  0  0  0  0  0  0
    7.4040    3.0346    0.0000 H   0  0  0  0  0  0  0  0  0  0  0  0
    6.0010   -2.3954    0.0000 H   0  0  0  0  0  0  0  0  0  0  0  0
    6.0010    2.8446    0.0000 H   0  0  0  0  0  0  0  0  0  0  0  0
    6.5380   -1.0854    0.0000 H   0  0  0  0  0  0  0  0  0  0  0  0
    7.7265    0.3746    0.0000 H   0  0  0  0  0  0  0  0  0  0  0  0
    3.5362   -1.3447    0.0000 H   0  0  0  0  0  0  0  0  0  0  0  0
    5.4641    1.5346    0.0000 H   0  0  0  0  0  0  0  0  0  0  0  0
    5.6720    0.0346    0.0000 H   0  0  0  0  0  0  0  0  0  0  0  0
    8.2224    0.2202    0.0000 H   0  0  0  0  0  0  0  0  0  0  0  0
    9.0207    0.2109    0.0000 H   0  0  0  0  0  0  0  0  0  0  0  0
    3.1544   -1.6969    0.0000 H   0  0  0  0  0  0  0  0  0  0  0  0
    2.7473   -2.3836    0.0000 H   0  0  0  0  0  0  0  0  0  0  0  0
   10.0706    1.9365    0.0000 H   0  0  0  0  0  0  0  0  0  0  0  0
    3.7167   -4.1557    0.0000 H   0  0  0  0  0  0  0  0  0  0  0  0
    5.3905    4.3323    0.0000 H   0  0  0  0  0  0  0  0  0  0  0  0
    5.7890    3.6420    0.0000 H   0  0  0  0  0  0  0  0  0  0  0  0
    6.2565   -3.1677    0.0000 H   0  0  0  0  0  0  0  0  0  0  0  0
    6.6550   -3.8580    0.0000 H   0  0  0  0  0  0  0  0  0  0  0  0
    3.8705    1.7497    0.0000 H   0  0  0  0  0  0  0  0  0  0  0  0
    4.6675    1.7497    0.0000 H   0  0  0  0  0  0  0  0  0  0  0  0
    7.3346   -1.2503    0.0000 H   0  0  0  0  0  0  0  0  0  0  0  0
    8.1316   -1.2503    0.0000 H   0  0  0  0  0  0  0  0  0  0  0  0
    9.8552    4.0567    0.0000 H   0  0  0  0  0  0  0  0  0  0  0  0
    5.6606   -5.0292    0.0000 H   0  0  0  0  0  0  0  0  0  0  0  0
   11.2675    1.6321    0.0000 H   0  0  0  0  0  0  0  0  0  0  0  0
    2.8547   -5.0400    0.0000 H   0  0  0  0  0  0  0  0  0  0  0  0
   11.2550    4.8721    0.0000 H   0  0  0  0  0  0  0  0  0  0  0  0
    5.6668   -6.6492    0.0000 H   0  0  0  0  0  0  0  0  0  0  0  0
   12.6674    2.4475    0.0000 H   0  0  0  0  0  0  0  0  0  0  0  0
    2.8609   -6.6600    0.0000 H   0  0  0  0  0  0  0  0  0  0  0  0
   12.6611    4.0675    0.0000 H   0  0  0  0  0  0  0  0  0  0  0  0
    4.2670   -7.4646    0.0000 H   0  0  0  0  0  0  0  0  0  0  0  0
    6.0010    6.8446    0.0000 H   0  0  0  0  0  0  0  0  0  0  0  0
    9.1360   -4.5854    0.0000 H   0  0  0  0  0  0  0  0  0  0  0  0
    2.0000    3.5346    0.0000 H   0  0  0  0  0  0  0  0  0  0  0  0
   10.0021    0.5346    0.0000 H   0  0  0  0  0  0  0  0  0  0  0  0
  1 18  1  0  0  0  0
  1 20  1  0  0  0  0
  2 19  1  0  0  0  0
  2 21  1  0  0  0  0
 20  3  1  6  0  0  0
 21  3  1  6  0  0  0
  4 12  1  0  0  0  0
  4 24  1  0  0  0  0
  5 13  1  0  0  0  0
  5 25  1  0  0  0  0
 14  6  1  1  0  0  0
  6 28  1  0  0  0  0
 15  7  1  1  0  0  0
  7 29  1  0  0  0  0
 16  8  1  6  0  0  0
  8 30  1  0  0  0  0
 17  9  1  6  0  0  0
  9 31  1  0  0  0  0
 10 22  1  0  0  0  0
 10 24  1  0  0  0  0
 11 23  1  0  0  0  0
 11 25  1  0  0  0  0
 12 14  1  0  0  0  0
 12 18  1  0  0  0  0
 12 50  1  1  0  0  0
 13 15  1  0  0  0  0
 13 19  1  0  0  0  0
 13 51  1  1  0  0  0
 14 16  1  0  0  0  0
 14 52  1  0  0  0  0
 15 17  1  0  0  0  0
 15 53  1  0  0  0  0
 16 20  1  0  0  0  0
 16 54  1  0  0  0  0
 17 21  1  0  0  0  0
 17 55  1  0  0  0  0
 18 22  1  0  0  0  0
 18 56  1  6  0  0  0
 19 23  1  0  0  0  0
 19 57  1  6  0  0  0
 20 58  1  0  0  0  0
 21 59  1  0  0  0  0
 22 60  1  0  0  0  0
 22 61  1  0  0  0  0
 23 62  1  0  0  0  0
 23 63  1  0  0  0  0
 24 26  1  6  0  0  0
 24 64  1  0  0  0  0
 25 27  1  6  0  0  0
 25 65  1  0  0  0  0
 26 32  2  0  0  0  0
 26 34  1  0  0  0  0
 27 33  2  0  0  0  0
 27 35  1  0  0  0  0
 28 36  1  0  0  0  0
 28 66  1  0  0  0  0
 28 67  1  0  0  0  0
 29 37  1  0  0  0  0
 29 68  1  0  0  0  0
 29 69  1  0  0  0  0
 30 38  1  0  0  0  0
 30 70  1  0  0  0  0
 30 71  1  0  0  0  0
 31 39  1  0  0  0  0
 31 72  1  0  0  0  0
 31 73  1  0  0  0  0
 32 40  1  0  0  0  0
 32 74  1  0  0  0  0
 33 41  1  0  0  0  0
 33 75  1  0  0  0  0
 34 42  2  0  0  0  0
 34 76  1  0  0  0  0
 35 43  2  0  0  0  0
 35 77  1  0  0  0  0
 36 46  3  0  0  0  0
 37 47  3  0  0  0  0
 38 48  3  0  0  0  0
 39 49  3  0  0  0  0
 40 44  2  0  0  0  0
 40 78  1  0  0  0  0
 41 45  2  0  0  0  0
 41 79  1  0  0  0  0
 42 44  1  0  0  0  0
 42 80  1  0  0  0  0
 43 45  1  0  0  0  0
 43 81  1  0  0  0  0
 44 82  1  0  0  0  0
 45 83  1  0  0  0  0
 46 84  1  0  0  0  0
 47 85  1  0  0  0  0
 48 86  1  0  0  0  0
 49 87  1  0  0  0  0
M  END
> <PUBCHEM_COMPOUND_CID>
44130950

> <PUBCHEM_COMPOUND_CANONICALIZED>
1

> <PUBCHEM_CACTVS_COMPLEXITY>
1160

> <PUBCHEM_CACTVS_HBOND_ACCEPTOR>
11

> <PUBCHEM_CACTVS_HBOND_DONOR>
0

> <PUBCHEM_CACTVS_ROTATABLE_BOND>
12

> <PUBCHEM_CACTVS_SUBSKEYS>
AAADcfB8PAAAAAAAAAAAAAAAAAAAAAAAAAA0aJEiAAAAAACRQAAAGgAAAAAADBSwmAMwCIAABADAGiBCAAACAAAgAAAIiAAACIgZJiKAMRiiMAAlwAEOqAfA4CwOAAAAAAAAAAAAAAAAAAAAAAAAAAAAAA==

> <PUBCHEM_IUPAC_OPENEYE_NAME>
(2R,4aR,6R,7R,8S,8aR)-6-[[(2R,4aR,6R,7R,8S,8aR)-2-phenyl-7,8-bis(prop-2-ynoxy)-4,4a,6,7,8,8a-hexahydropyrano[3,2-d][1,3]dioxin-6-yl]oxy]-2-phenyl-7,8-bis(prop-2-ynoxy)-4,4a,6,7,8,8a-hexahydropyrano[3,2-d][1,3]dioxine

> <PUBCHEM_IUPAC_CAS_NAME>
(2R,4aR,6R,7R,8S,8aR)-6-[[(2R,4aR,6R,7R,8S,8aR)-2-phenyl-7,8-bis(prop-2-ynoxy)-4,4a,6,7,8,8a-hexahydropyrano[3,2-d][1,3]dioxin-6-yl]oxy]-2-phenyl-7,8-bis(prop-2-ynoxy)-4,4a,6,7,8,8a-hexahydropyrano[3,2-d][1,3]dioxin

> <PUBCHEM_IUPAC_NAME_MARKUP>
(2<I>R</I>,4<I>a</I><I>R</I>,6<I>R</I>,7<I>R</I>,8<I>S</I>,8<I>a</I><I>R</I>)-6-[[(2<I>R</I>,4<I>a</I><I>R</I>,6<I>R</I>,7<I>R</I>,8<I>S</I>,8<I>a</I><I>R</I>)-2-phenyl-7,8-bis(prop-2-ynoxy)-4,4<I>a</I>,6,7,8,8<I>a</I>-hexahydropyrano[3,2-d][1,3]dioxin-6-yl]oxy]-2-phenyl-7,8-bis(prop-2-ynoxy)-4,4<I>a</I>,6,7,8,8<I>a</I>-hexahydropyrano[3,2-d][1,3]dioxine

> <PUBCHEM_IUPAC_NAME>
(2R,4aR,6R,7R,8S,8aR)-6-[[(2R,4aR,6R,7R,8S,8aR)-2-phenyl-7,8-bis(prop-2-ynoxy)-4,4a,6,7,8,8a-hexahydropyrano[3,2-d][1,3]dioxin-6-yl]oxy]-2-phenyl-7,8-bis(prop-2-ynoxy)-4,4a,6,7,8,8a-hexahydropyrano[3,2-d][1,3]dioxine

> <PUBCHEM_IUPAC_SYSTEMATIC_NAME>
(2R,4aR,6R,7R,8S,8aR)-6-[[(2R,4aR,6R,7R,8S,8aR)-2-phenyl-7,8-bis(prop-2-ynoxy)-4,4a,6,7,8,8a-hexahydropyrano[3,2-d][1,3]dioxin-6-yl]oxy]-2-phenyl-7,8-bis(prop-2-ynoxy)-4,4a,6,7,8,8a-hexahydropyrano[3,2-d][1,3]dioxine

> <PUBCHEM_IUPAC_TRADITIONAL_NAME>
(2R,4aR,6R,7R,8S,8aR)-6-[[(2R,4aR,6R,7R,8S,8aR)-2-phenyl-7,8-dipropargyloxy-4,4a,6,7,8,8a-hexahydropyrano[3,2-d][1,3]dioxin-6-yl]oxy]-2-phenyl-7,8-dipropargyloxy-4,4a,6,7,8,8a-hexahydropyrano[3,2-d][1,3]dioxin

> <PUBCHEM_IUPAC_INCHI>
InChI=1S/C38H38O11/c1-5-19-39-31-29-27(23-43-35(47-29)25-15-11-9-12-16-25)45-37(33(31)41-21-7-3)49-38-34(42-22-8-4)32(40-20-6-2)30-28(46-38)24-44-36(48-30)26-17-13-10-14-18-26/h1-4,9-18,27-38H,19-24H2/t27-,28-,29-,30-,31+,32+,33-,34-,35-,36-,37-,38-/m1/s1

> <PUBCHEM_IUPAC_INCHIKEY>
WVBRICKZPOBLKX-LMHNXGONSA-N

> <PUBCHEM_XLOGP3_AA>
2.3

> <PUBCHEM_EXACT_MASS>
670.24141202

> <PUBCHEM_MOLECULAR_FORMULA>
C38H38O11

> <PUBCHEM_MOLECULAR_WEIGHT>
670.7

> <PUBCHEM_OPENEYE_CAN_SMILES>
C#CCOC1C2C(COC(O2)C3=CC=CC=C3)OC(C1OCC#C)OC4C(C(C5C(O4)COC(O5)C6=CC=CC=C6)OCC#C)OCC#C

> <PUBCHEM_OPENEYE_ISO_SMILES>
C#CCO[C@H]1[C@H]2[C@@H](CO[C@H](O2)C3=CC=CC=C3)O[C@@H]([C@@H]1OCC#C)O[C@@H]4[C@@H]([C@H]([C@H]5[C@H](O4)CO[C@H](O5)C6=CC=CC=C6)OCC#C)OCC#C

> <PUBCHEM_CACTVS_TPSA>
102

> <PUBCHEM_MONOISOTOPIC_WEIGHT>
670.24141202

> <PUBCHEM_TOTAL_CHARGE>
0

> <PUBCHEM_HEAVY_ATOM_COUNT>
49

> <PUBCHEM_ATOM_DEF_STEREO_COUNT>
12

> <PUBCHEM_ATOM_UDEF_STEREO_COUNT>
0

> <PUBCHEM_BOND_DEF_STEREO_COUNT>
0

> <PUBCHEM_BOND_UDEF_STEREO_COUNT>
0

> <PUBCHEM_ISOTOPIC_ATOM_COUNT>
0

> <PUBCHEM_COMPONENT_COUNT>
1

> <PUBCHEM_CACTVS_TAUTO_COUNT>
-1

> <PUBCHEM_COORDINATE_TYPE>
1
5
255

> <PUBCHEM_BONDANNOTATIONS>
12  50  5
13  51  5
18  56  6
19  57  6
24  26  6
25  27  6
26  32  8
26  34  8
27  33  8
27  35  8
20  3  6
21  3  6
32  40  8
33  41  8
34  42  8
35  43  8
40  44  8
41  45  8
42  44  8
43  45  8
14  6  5
15  7  5
16  8  6
17  9  6

$$$$
