 
  -OEChem-10192104142D

 79 81  0     1  0  0  0  0  0999 V2000
    8.5991   -1.2500    0.0000 O   0  0  0  0  0  0  0  0  0  0  0  0
   10.3312   -1.2500    0.0000 O   0  0  0  0  0  0  0  0  0  0  0  0
    6.8671   -0.2500    0.0000 O   0  0  0  0  0  0  0  0  0  0  0  0
    5.1350   -0.2500    0.0000 O   0  0  0  0  0  0  0  0  0  0  0  0
    6.8671   -3.2500    0.0000 O   0  0  0  0  0  0  0  0  0  0  0  0
    8.5991   -4.2500    0.0000 O   0  0  0  0  0  0  0  0  0  0  0  0
   10.3312   -3.2500    0.0000 O   0  0  0  0  0  0  0  0  0  0  0  0
    6.8671    1.7500    0.0000 O   0  0  0  0  0  0  0  0  0  0  0  0
    5.1350    2.7500    0.0000 O   0  0  0  0  0  0  0  0  0  0  0  0
    3.4030    1.7500    0.0000 O   0  0  0  0  0  0  0  0  0  0  0  0
   14.6613    3.2500    0.0000 O   0  0  0  0  0  0  0  0  0  0  0  0
   11.1972    4.2500    0.0000 O   0  0  0  0  0  0  0  0  0  0  0  0
   10.3312    2.7500    0.0000 O   0  0  0  0  0  0  0  0  0  0  0  0
    2.5369    0.2500    0.0000 O   0  0  0  0  0  0  0  0  0  0  0  0
   12.9292    1.2500    0.0000 C   0  0  0  0  0  0  0  0  0  0  0  0
   12.0632    1.7500    0.0000 C   0  0  3  0  0  0  0  0  0  0  0  0
   11.1972    1.2500    0.0000 C   0  0  0  0  0  0  0  0  0  0  0  0
   13.7953    1.7500    0.0000 C   0  0  0  0  0  0  0  0  0  0  0  0
   11.1972    0.2500    0.0000 C   0  0  0  0  0  0  0  0  0  0  0  0
   12.0632    2.7500    0.0000 C   0  0  0  0  0  0  0  0  0  0  0  0
    7.7331   -1.7500    0.0000 C   0  0  1  0  0  0  0  0  0  0  0  0
   13.4292    0.3840    0.0000 C   0  0  0  0  0  0  0  0  0  0  0  0
   12.4292    0.3840    0.0000 C   0  0  0  0  0  0  0  0  0  0  0  0
    7.7331   -2.7500    0.0000 C   0  0  2  0  0  0  0  0  0  0  0  0
    9.4651   -1.7500    0.0000 C   0  0  1  0  0  0  0  0  0  0  0  0
    8.5991   -3.2500    0.0000 C   0  0  1  0  0  0  0  0  0  0  0  0
    9.4651   -2.7500    0.0000 C   0  0  1  0  0  0  0  0  0  0  0  0
   10.3312   -0.2500    0.0000 C   0  0  3  0  0  0  0  0  0  0  0  0
   13.7953    2.7500    0.0000 C   0  0  0  0  0  0  0  0  0  0  0  0
   12.9292    3.2500    0.0000 C   0  0  0  0  0  0  0  0  0  0  0  0
    6.8671   -1.2500    0.0000 C   0  0  0  0  0  0  0  0  0  0  0  0
    6.0010    0.2500    0.0000 C   0  0  2  0  0  0  0  0  0  0  0  0
    6.0010    1.2500    0.0000 C   0  0  1  0  0  0  0  0  0  0  0  0
    5.1350    1.7500    0.0000 C   0  0  2  0  0  0  0  0  0  0  0  0
    4.2690    1.2500    0.0000 C   0  0  1  0  0  0  0  0  0  0  0  0
    4.2690    0.2500    0.0000 C   0  0  1  0  0  0  0  0  0  0  0  0
    9.4651    0.2500    0.0000 C   0  0  0  0  0  0  0  0  0  0  0  0
   11.1972    3.2500    0.0000 C   0  0  0  0  0  0  0  0  0  0  0  0
    3.4030   -0.2500    0.0000 C   0  0  0  0  0  0  0  0  0  0  0  0
   11.5263    2.0600    0.0000 H   0  0  0  0  0  0  0  0  0  0  0  0
   10.9851    1.8326    0.0000 H   0  0  0  0  0  0  0  0  0  0  0  0
   10.5866    1.1423    0.0000 H   0  0  0  0  0  0  0  0  0  0  0  0
   14.0073    1.1674    0.0000 H   0  0  0  0  0  0  0  0  0  0  0  0
   14.4058    1.8577    0.0000 H   0  0  0  0  0  0  0  0  0  0  0  0
   11.4092   -0.3326    0.0000 H   0  0  0  0  0  0  0  0  0  0  0  0
   11.8078    0.3577    0.0000 H   0  0  0  0  0  0  0  0  0  0  0  0
    7.7331   -1.1300    0.0000 H   0  0  0  0  0  0  0  0  0  0  0  0
   12.8923    0.0740    0.0000 H   0  0  0  0  0  0  0  0  0  0  0  0
   13.7392   -0.1530    0.0000 H   0  0  0  0  0  0  0  0  0  0  0  0
   13.9662    0.6940    0.0000 H   0  0  0  0  0  0  0  0  0  0  0  0
   11.8923    0.6940    0.0000 H   0  0  0  0  0  0  0  0  0  0  0  0
   12.1192   -0.1530    0.0000 H   0  0  0  0  0  0  0  0  0  0  0  0
   12.9662    0.0740    0.0000 H   0  0  0  0  0  0  0  0  0  0  0  0
    7.7331   -3.3700    0.0000 H   0  0  0  0  0  0  0  0  0  0  0  0
   10.0021   -2.0600    0.0000 H   0  0  0  0  0  0  0  0  0  0  0  0
    9.1360   -3.5600    0.0000 H   0  0  0  0  0  0  0  0  0  0  0  0
    9.4651   -3.3700    0.0000 H   0  0  0  0  0  0  0  0  0  0  0  0
    9.7942   -0.5600    0.0000 H   0  0  0  0  0  0  0  0  0  0  0  0
    6.2565   -1.1423    0.0000 H   0  0  0  0  0  0  0  0  0  0  0  0
    6.6550   -1.8326    0.0000 H   0  0  0  0  0  0  0  0  0  0  0  0
   12.9292    3.8700    0.0000 H   0  0  0  0  0  0  0  0  0  0  0  0
    6.5380    0.5600    0.0000 H   0  0  0  0  0  0  0  0  0  0  0  0
    6.0010    1.8700    0.0000 H   0  0  0  0  0  0  0  0  0  0  0  0
    4.5981    2.0600    0.0000 H   0  0  0  0  0  0  0  0  0  0  0  0
    4.2690    1.8700    0.0000 H   0  0  0  0  0  0  0  0  0  0  0  0
    4.2690   -0.3700    0.0000 H   0  0  0  0  0  0  0  0  0  0  0  0
    9.7751    0.7869    0.0000 H   0  0  0  0  0  0  0  0  0  0  0  0
    8.9282    0.5600    0.0000 H   0  0  0  0  0  0  0  0  0  0  0  0
    9.1551   -0.2869    0.0000 H   0  0  0  0  0  0  0  0  0  0  0  0
    3.0044   -0.7249    0.0000 H   0  0  0  0  0  0  0  0  0  0  0  0
    3.8015   -0.7249    0.0000 H   0  0  0  0  0  0  0  0  0  0  0  0
    6.3301   -2.9400    0.0000 H   0  0  0  0  0  0  0  0  0  0  0  0
    8.0622   -4.5600    0.0000 H   0  0  0  0  0  0  0  0  0  0  0  0
   10.8681   -2.9400    0.0000 H   0  0  0  0  0  0  0  0  0  0  0  0
    6.8671    2.3700    0.0000 H   0  0  0  0  0  0  0  0  0  0  0  0
    4.5981    3.0600    0.0000 H   0  0  0  0  0  0  0  0  0  0  0  0
    3.4030    2.3700    0.0000 H   0  0  0  0  0  0  0  0  0  0  0  0
   10.6603    4.5600    0.0000 H   0  0  0  0  0  0  0  0  0  0  0  0
    2.0000   -0.0600    0.0000 H   0  0  0  0  0  0  0  0  0  0  0  0
  1 21  1  0  0  0  0
  1 25  1  0  0  0  0
 25  2  1  1  0  0  0
  2 28  1  0  0  0  0
  3 31  1  0  0  0  0
 32  3  1  6  0  0  0
  4 32  1  0  0  0  0
  4 36  1  0  0  0  0
 24  5  1  6  0  0  0
  5 72  1  0  0  0  0
 26  6  1  1  0  0  0
  6 73  1  0  0  0  0
 27  7  1  6  0  0  0
  7 74  1  0  0  0  0
 33  8  1  1  0  0  0
  8 75  1  0  0  0  0
 34  9  1  6  0  0  0
  9 76  1  0  0  0  0
 35 10  1  1  0  0  0
 10 77  1  0  0  0  0
 11 29  2  0  0  0  0
 12 38  1  0  0  0  0
 12 78  1  0  0  0  0
 13 38  2  0  0  0  0
 14 39  1  0  0  0  0
 14 79  1  0  0  0  0
 15 16  1  0  0  0  0
 15 18  1  0  0  0  0
 15 22  1  0  0  0  0
 15 23  1  0  0  0  0
 16 17  1  0  0  0  0
 16 20  1  0  0  0  0
 16 40  1  0  0  0  0
 17 19  1  0  0  0  0
 17 41  1  0  0  0  0
 17 42  1  0  0  0  0
 18 29  1  0  0  0  0
 18 43  1  0  0  0  0
 18 44  1  0  0  0  0
 19 28  1  0  0  0  0
 19 45  1  0  0  0  0
 19 46  1  0  0  0  0
 20 30  2  0  0  0  0
 20 38  1  0  0  0  0
 21 24  1  0  0  0  0
 21 31  1  1  0  0  0
 21 47  1  0  0  0  0
 22 48  1  0  0  0  0
 22 49  1  0  0  0  0
 22 50  1  0  0  0  0
 23 51  1  0  0  0  0
 23 52  1  0  0  0  0
 23 53  1  0  0  0  0
 24 26  1  0  0  0  0
 24 54  1  0  0  0  0
 25 27  1  0  0  0  0
 25 55  1  0  0  0  0
 26 27  1  0  0  0  0
 26 56  1  0  0  0  0
 27 57  1  0  0  0  0
 28 37  1  0  0  0  0
 28 58  1  0  0  0  0
 29 30  1  0  0  0  0
 30 61  1  0  0  0  0
 31 59  1  0  0  0  0
 31 60  1  0  0  0  0
 32 33  1  0  0  0  0
 32 62  1  0  0  0  0
 33 34  1  0  0  0  0
 33 63  1  0  0  0  0
 34 35  1  0  0  0  0
 34 64  1  0  0  0  0
 35 36  1  0  0  0  0
 35 65  1  0  0  0  0
 36 39  1  6  0  0  0
 36 66  1  0  0  0  0
 37 67  1  0  0  0  0
 37 68  1  0  0  0  0
 37 69  1  0  0  0  0
 39 70  1  0  0  0  0
 39 71  1  0  0  0  0
M  END
> <PUBCHEM_COMPOUND_CID>
101068037

> <PUBCHEM_COMPOUND_CANONICALIZED>
1

> <PUBCHEM_CACTVS_COMPLEXITY>
892

> <PUBCHEM_CACTVS_HBOND_ACCEPTOR>
14

> <PUBCHEM_CACTVS_HBOND_DONOR>
8

> <PUBCHEM_CACTVS_ROTATABLE_BOND>
10

> <PUBCHEM_CACTVS_SUBSKEYS>
AAADcfB4PAAAAAAAAAAAAAAAAAAAAAAAAAAkSIAAAAAAAAAAAAAAGgAACAAADxSwgAMCCAAABgCIAqDSCAAAAAAgAAAACAEAAEgRFBIAAQAiUAAFgAAPEYPI6PyPgAAAAAAAAAAAAAAAAAAAAAAAAAAAAA==

> <PUBCHEM_IUPAC_OPENEYE_NAME>
5,5-dimethyl-3-oxo-6-[3-[(2R,3R,4S,5S,6R)-3,4,5-trihydroxy-6-[[(2R,3R,4S,5S,6R)-3,4,5-trihydroxy-6-(hydroxymethyl)tetrahydropyran-2-yl]oxymethyl]tetrahydropyran-2-yl]oxybutyl]cyclohexene-1-carboxylic acid

> <PUBCHEM_IUPAC_CAS_NAME>
5,5-dimethyl-3-oxo-6-[3-[[(2R,3R,4S,5S,6R)-3,4,5-trihydroxy-6-[[(2R,3R,4S,5S,6R)-3,4,5-trihydroxy-6-(hydroxymethyl)-2-oxanyl]oxymethyl]-2-oxanyl]oxy]butyl]-1-cyclohexenecarboxylic acid

> <PUBCHEM_IUPAC_NAME_MARKUP>
5,5-dimethyl-3-oxo-6-[3-[(2<I>R</I>,3<I>R</I>,4<I>S</I>,5<I>S</I>,6<I>R</I>)-3,4,5-trihydroxy-6-[[(2<I>R</I>,3<I>R</I>,4<I>S</I>,5<I>S</I>,6<I>R</I>)-3,4,5-trihydroxy-6-(hydroxymethyl)oxan-2-yl]oxymethyl]oxan-2-yl]oxybutyl]cyclohexene-1-carboxylic acid

> <PUBCHEM_IUPAC_NAME>
5,5-dimethyl-3-oxo-6-[3-[(2R,3R,4S,5S,6R)-3,4,5-trihydroxy-6-[[(2R,3R,4S,5S,6R)-3,4,5-trihydroxy-6-(hydroxymethyl)oxan-2-yl]oxymethyl]oxan-2-yl]oxybutyl]cyclohexene-1-carboxylic acid

> <PUBCHEM_IUPAC_SYSTEMATIC_NAME>
6-[3-[(2R,3R,4S,5S,6R)-6-[[(2R,3R,4S,5S,6R)-6-(hydroxymethyl)-3,4,5-tris(oxidanyl)oxan-2-yl]oxymethyl]-3,4,5-tris(oxidanyl)oxan-2-yl]oxybutyl]-5,5-dimethyl-3-oxidanylidene-cyclohexene-1-carboxylic acid

> <PUBCHEM_IUPAC_TRADITIONAL_NAME>
3-keto-5,5-dimethyl-6-[3-[(2R,3R,4S,5S,6R)-3,4,5-trihydroxy-6-[[(2R,3R,4S,5S,6R)-3,4,5-trihydroxy-6-methylol-tetrahydropyran-2-yl]oxymethyl]tetrahydropyran-2-yl]oxybutyl]cyclohexene-1-carboxylic acid

> <PUBCHEM_IUPAC_INCHI>
InChI=1S/C25H40O14/c1-10(4-5-13-12(22(34)35)6-11(27)7-25(13,2)3)37-24-21(33)19(31)17(29)15(39-24)9-36-23-20(32)18(30)16(28)14(8-26)38-23/h6,10,13-21,23-24,26,28-33H,4-5,7-9H2,1-3H3,(H,34,35)/t10?,13?,14-,15-,16-,17-,18+,19+,20-,21-,23-,24-/m1/s1

> <PUBCHEM_IUPAC_INCHIKEY>
LIMDGJBTLPVSQA-AYHQJXHXSA-N

> <PUBCHEM_XLOGP3_AA>
-2.5

> <PUBCHEM_EXACT_MASS>
564.24180595

> <PUBCHEM_MOLECULAR_FORMULA>
C25H40O14

> <PUBCHEM_MOLECULAR_WEIGHT>
564.6

> <PUBCHEM_OPENEYE_CAN_SMILES>
CC(CCC1C(=CC(=O)CC1(C)C)C(=O)O)OC2C(C(C(C(O2)COC3C(C(C(C(O3)CO)O)O)O)O)O)O

> <PUBCHEM_OPENEYE_ISO_SMILES>
CC(CCC1C(=CC(=O)CC1(C)C)C(=O)O)O[C@H]2[C@@H]([C@H]([C@@H]([C@H](O2)CO[C@H]3[C@@H]([C@H]([C@@H]([C@H](O3)CO)O)O)O)O)O)O

> <PUBCHEM_CACTVS_TPSA>
233

> <PUBCHEM_MONOISOTOPIC_WEIGHT>
564.24180595

> <PUBCHEM_TOTAL_CHARGE>
0

> <PUBCHEM_HEAVY_ATOM_COUNT>
39

> <PUBCHEM_ATOM_DEF_STEREO_COUNT>
10

> <PUBCHEM_ATOM_UDEF_STEREO_COUNT>
2

> <PUBCHEM_BOND_DEF_STEREO_COUNT>
0

> <PUBCHEM_BOND_UDEF_STEREO_COUNT>
0

> <PUBCHEM_ISOTOPIC_ATOM_COUNT>
0

> <PUBCHEM_COMPONENT_COUNT>
1

> <PUBCHEM_CACTVS_TAUTO_COUNT>
-1

> <PUBCHEM_COORDINATE_TYPE>
1
5
255

> <PUBCHEM_BONDANNOTATIONS>
35  10  5
16  17  3
25  2  5
21  31  5
28  37  3
32  3  6
36  39  6
24  5  6
26  6  5
27  7  6
33  8  5
34  9  6

$$$$
