 
  -OEChem-10192104212D

 24 23  0     1  0  0  0  0  0999 V2000
    3.7690    0.9821    0.0000 O   0  0  0  0  0  0  0  0  0  0  0  0
    2.5369    0.1160    0.0000 O   0  0  0  0  0  0  0  0  0  0  0  0
    6.8671    0.6160    0.0000 O   0  0  0  0  0  0  0  0  0  0  0  0
    3.4030   -1.3840    0.0000 O   0  0  0  0  0  0  0  0  0  0  0  0
    6.0010   -0.8840    0.0000 O   0  0  0  0  0  0  0  0  0  0  0  0
    4.2690    0.1160    0.0000 C   0  0  3  0  0  0  0  0  0  0  0  0
    5.1350    0.6160    0.0000 C   0  0  3  0  0  0  0  0  0  0  0  0
    4.7690   -0.7500    0.0000 C   0  0  0  0  0  0  0  0  0  0  0  0
    5.1350    1.6160    0.0000 C   0  0  0  0  0  0  0  0  0  0  0  0
    3.4030   -0.3840    0.0000 C   0  0  0  0  0  0  0  0  0  0  0  0
    4.2690   -1.6160    0.0000 C   0  0  0  0  0  0  0  0  0  0  0  0
    6.0010    0.1160    0.0000 C   0  0  0  0  0  0  0  0  0  0  0  0
    5.6720    0.9260    0.0000 H   0  0  0  0  0  0  0  0  0  0  0  0
    5.2439   -1.1485    0.0000 H   0  0  0  0  0  0  0  0  0  0  0  0
    5.2439   -0.3515    0.0000 H   0  0  0  0  0  0  0  0  0  0  0  0
    5.7550    1.6160    0.0000 H   0  0  0  0  0  0  0  0  0  0  0  0
    5.1350    2.2360    0.0000 H   0  0  0  0  0  0  0  0  0  0  0  0
    4.5150    1.6160    0.0000 H   0  0  0  0  0  0  0  0  0  0  0  0
    3.7320   -1.3060    0.0000 H   0  0  0  0  0  0  0  0  0  0  0  0
    3.9590   -2.1530    0.0000 H   0  0  0  0  0  0  0  0  0  0  0  0
    4.8059   -1.9260    0.0000 H   0  0  0  0  0  0  0  0  0  0  0  0
    3.1490    0.9821    0.0000 H   0  0  0  0  0  0  0  0  0  0  0  0
    2.0000   -0.1940    0.0000 H   0  0  0  0  0  0  0  0  0  0  0  0
    7.4040    0.3060    0.0000 H   0  0  0  0  0  0  0  0  0  0  0  0
  1  6  1  0  0  0  0
  1 22  1  0  0  0  0
  2 10  1  0  0  0  0
  2 23  1  0  0  0  0
  3 12  1  0  0  0  0
  3 24  1  0  0  0  0
  4 10  2  0  0  0  0
  5 12  2  0  0  0  0
  6  7  1  0  0  0  0
  6  8  1  0  0  0  0
  6 10  1  0  0  0  0
  7  9  1  0  0  0  0
  7 12  1  0  0  0  0
  7 13  1  0  0  0  0
  8 11  1  0  0  0  0
  8 14  1  0  0  0  0
  8 15  1  0  0  0  0
  9 16  1  0  0  0  0
  9 17  1  0  0  0  0
  9 18  1  0  0  0  0
 11 19  1  0  0  0  0
 11 20  1  0  0  0  0
 11 21  1  0  0  0  0
M  END
> <PUBCHEM_COMPOUND_CID>
53881610

> <PUBCHEM_COMPOUND_CANONICALIZED>
1

> <PUBCHEM_CACTVS_COMPLEXITY>
200

> <PUBCHEM_CACTVS_HBOND_ACCEPTOR>
5

> <PUBCHEM_CACTVS_HBOND_DONOR>
3

> <PUBCHEM_CACTVS_ROTATABLE_BOND>
4

> <PUBCHEM_CACTVS_SUBSKEYS>
AAADccBgOAAAAAAAAAAAAAAAAAAAAAAAAAAAAAAAAAAAAAAAAAAAGgAACAAADUSAgAACCAAAAgAIAACQCAIAAAAAAAAAAAFAAAABABYAAAAAQAAFIAABAADLAAAOgAAAAAAAAAAAAAAAAAAAAAAAAAAAAA==

> <PUBCHEM_IUPAC_OPENEYE_NAME>
2-ethyl-2-hydroxy-3-methyl-butanedioic acid

> <PUBCHEM_IUPAC_CAS_NAME>
2-ethyl-2-hydroxy-3-methylbutanedioic acid

> <PUBCHEM_IUPAC_NAME_MARKUP>
2-ethyl-2-hydroxy-3-methylbutanedioic acid

> <PUBCHEM_IUPAC_NAME>
2-ethyl-2-hydroxy-3-methylbutanedioic acid

> <PUBCHEM_IUPAC_SYSTEMATIC_NAME>
2-ethyl-3-methyl-2-oxidanyl-butanedioic acid

> <PUBCHEM_IUPAC_TRADITIONAL_NAME>
2-ethyl-2-hydroxy-3-methyl-succinic acid

> <PUBCHEM_IUPAC_INCHI>
InChI=1S/C7H12O5/c1-3-7(12,6(10)11)4(2)5(8)9/h4,12H,3H2,1-2H3,(H,8,9)(H,10,11)

> <PUBCHEM_IUPAC_INCHIKEY>
HKEITEHXIPIELZ-UHFFFAOYSA-N

> <PUBCHEM_XLOGP3_AA>
0

> <PUBCHEM_EXACT_MASS>
176.06847348

> <PUBCHEM_MOLECULAR_FORMULA>
C7H12O5

> <PUBCHEM_MOLECULAR_WEIGHT>
176.17

> <PUBCHEM_OPENEYE_CAN_SMILES>
CCC(C(C)C(=O)O)(C(=O)O)O

> <PUBCHEM_OPENEYE_ISO_SMILES>
CCC(C(C)C(=O)O)(C(=O)O)O

> <PUBCHEM_CACTVS_TPSA>
94.8

> <PUBCHEM_MONOISOTOPIC_WEIGHT>
176.06847348

> <PUBCHEM_TOTAL_CHARGE>
0

> <PUBCHEM_HEAVY_ATOM_COUNT>
12

> <PUBCHEM_ATOM_DEF_STEREO_COUNT>
0

> <PUBCHEM_ATOM_UDEF_STEREO_COUNT>
2

> <PUBCHEM_BOND_DEF_STEREO_COUNT>
0

> <PUBCHEM_BOND_UDEF_STEREO_COUNT>
0

> <PUBCHEM_ISOTOPIC_ATOM_COUNT>
0

> <PUBCHEM_COMPONENT_COUNT>
1

> <PUBCHEM_CACTVS_TAUTO_COUNT>
-1

> <PUBCHEM_COORDINATE_TYPE>
1
5
255

> <PUBCHEM_BONDANNOTATIONS>
6  10  3
7  9  3

$$$$
