 
  -OEChem-10192104422D

 71 72  0     1  0  0  0  0  0999 V2000
    6.8909   -0.6915    0.0000 P   0  0  3  0  0  0  0  0  0  0  0  0
    7.5954    0.8908    0.0000 P   0  0  0  0  0  0  0  0  0  0  0  0
    5.0298    1.7730    0.0000 O   0  0  0  0  0  0  0  0  0  0  0  0
    6.3031    0.1175    0.0000 O   0  0  0  0  0  0  0  0  0  0  0  0
    3.1330    0.0130    0.0000 O   0  0  0  0  0  0  0  0  0  0  0  0
    2.4608    2.0820    0.0000 O   0  0  0  0  0  0  0  0  0  0  0  0
    7.6999   -0.1037    0.0000 O   0  0  0  0  0  0  0  0  0  0  0  0
    6.0819   -1.2793    0.0000 O   0  0  0  0  0  0  0  0  0  0  0  0
    5.9529    3.3608    0.0000 O   0  0  0  0  0  0  0  0  0  0  0  0
    7.4341   -5.8592    0.0000 O   0  0  0  0  0  0  0  0  0  0  0  0
    8.5899    0.9953    0.0000 O   0  0  0  0  0  0  0  0  0  0  0  0
    7.4909    1.8853    0.0000 O   0  0  0  0  0  0  0  0  0  0  0  0
    6.6009    0.7862    0.0000 O   0  0  0  0  0  0  0  0  0  0  0  0
    4.2208    6.3608    0.0000 O   0  0  0  0  0  0  0  0  0  0  0  0
    4.2208    3.3608    0.0000 N   0  0  0  0  0  0  0  0  0  0  0  0
    5.0868    4.8608    0.0000 N   0  0  0  0  0  0  0  0  0  0  0  0
   12.2256   -3.6140    0.0000 N   0  0  0  0  0  0  0  0  0  0  0  0
    4.7208    0.8220    0.0000 C   0  0  1  0  0  0  0  0  0  0  0  0
    3.7208    0.8220    0.0000 C   0  0  2  0  0  0  0  0  0  0  0  0
    3.4118    1.7730    0.0000 C   0  0  2  0  0  0  0  0  0  0  0  0
    4.2208    2.3608    0.0000 C   0  0  1  0  0  0  0  0  0  0  0  0
    7.4787   -1.5006    0.0000 C   0  0  3  0  0  0  0  0  0  0  0  0
    5.3086    0.0130    0.0000 C   0  0  0  0  0  0  0  0  0  0  0  0
    8.4732   -1.3960    0.0000 C   0  0  0  0  0  0  0  0  0  0  0  0
    7.0720   -2.4141    0.0000 C   0  0  0  0  0  0  0  0  0  0  0  0
    9.0610   -2.2050    0.0000 C   0  0  0  0  0  0  0  0  0  0  0  0
    7.6598   -3.2231    0.0000 C   0  0  0  0  0  0  0  0  0  0  0  0
   10.0555   -2.1005    0.0000 C   0  0  0  0  0  0  0  0  0  0  0  0
    7.2530   -4.1367    0.0000 C   0  0  0  0  0  0  0  0  0  0  0  0
    5.0868    3.8608    0.0000 C   0  0  0  0  0  0  0  0  0  0  0  0
    3.3548    3.8608    0.0000 C   0  0  0  0  0  0  0  0  0  0  0  0
   10.6433   -2.9095    0.0000 C   0  0  0  0  0  0  0  0  0  0  0  0
    7.8408   -4.9457    0.0000 C   0  0  0  0  0  0  0  0  0  0  0  0
   11.6378   -2.8050    0.0000 C   0  0  0  0  0  0  0  0  0  0  0  0
    3.3548    4.8608    0.0000 C   0  0  0  0  0  0  0  0  0  0  0  0
    4.2208    5.3608    0.0000 C   0  0  0  0  0  0  0  0  0  0  0  0
    5.3332    0.9190    0.0000 H   0  0  0  0  0  0  0  0  0  0  0  0
    3.1085    0.9190    0.0000 H   0  0  0  0  0  0  0  0  0  0  0  0
    2.9734    1.3346    0.0000 H   0  0  0  0  0  0  0  0  0  0  0  0
    3.6684    2.6423    0.0000 H   0  0  0  0  0  0  0  0  0  0  0  0
    7.7309   -0.9342    0.0000 H   0  0  0  0  0  0  0  0  0  0  0  0
    4.7514   -0.2588    0.0000 H   0  0  0  0  0  0  0  0  0  0  0  0
    5.4795   -0.5830    0.0000 H   0  0  0  0  0  0  0  0  0  0  0  0
    9.0305   -1.1242    0.0000 H   0  0  0  0  0  0  0  0  0  0  0  0
    8.3023   -0.8000    0.0000 H   0  0  0  0  0  0  0  0  0  0  0  0
    6.5580   -2.0674    0.0000 H   0  0  0  0  0  0  0  0  0  0  0  0
    6.6413   -2.8601    0.0000 H   0  0  0  0  0  0  0  0  0  0  0  0
    8.5038   -2.4768    0.0000 H   0  0  0  0  0  0  0  0  0  0  0  0
    9.2319   -2.8010    0.0000 H   0  0  0  0  0  0  0  0  0  0  0  0
    8.1738   -3.5698    0.0000 H   0  0  0  0  0  0  0  0  0  0  0  0
    8.0904   -2.7771    0.0000 H   0  0  0  0  0  0  0  0  0  0  0  0
   10.6128   -1.8287    0.0000 H   0  0  0  0  0  0  0  0  0  0  0  0
    9.8846   -1.5045    0.0000 H   0  0  0  0  0  0  0  0  0  0  0  0
    3.3852   -0.5534    0.0000 H   0  0  0  0  0  0  0  0  0  0  0  0
    2.0000    1.6672    0.0000 H   0  0  0  0  0  0  0  0  0  0  0  0
    6.7390   -3.7900    0.0000 H   0  0  0  0  0  0  0  0  0  0  0  0
    6.8223   -4.5826    0.0000 H   0  0  0  0  0  0  0  0  0  0  0  0
   10.0861   -3.1813    0.0000 H   0  0  0  0  0  0  0  0  0  0  0  0
   10.8142   -3.5055    0.0000 H   0  0  0  0  0  0  0  0  0  0  0  0
    2.8179    3.5508    0.0000 H   0  0  0  0  0  0  0  0  0  0  0  0
    8.3548   -5.2924    0.0000 H   0  0  0  0  0  0  0  0  0  0  0  0
    8.2715   -4.4997    0.0000 H   0  0  0  0  0  0  0  0  0  0  0  0
   12.1951   -2.5332    0.0000 H   0  0  0  0  0  0  0  0  0  0  0  0
   11.4669   -2.2090    0.0000 H   0  0  0  0  0  0  0  0  0  0  0  0
    5.6238    5.1708    0.0000 H   0  0  0  0  0  0  0  0  0  0  0  0
    2.8179    5.1708    0.0000 H   0  0  0  0  0  0  0  0  0  0  0  0
   12.8422   -3.5492    0.0000 H   0  0  0  0  0  0  0  0  0  0  0  0
   11.9734   -4.1804    0.0000 H   0  0  0  0  0  0  0  0  0  0  0  0
    7.7985   -6.3608    0.0000 H   0  0  0  0  0  0  0  0  0  0  0  0
    8.8421    1.5617    0.0000 H   0  0  0  0  0  0  0  0  0  0  0  0
    7.9925    2.2497    0.0000 H   0  0  0  0  0  0  0  0  0  0  0  0
  1  4  1  0  0  0  0
  1  7  1  0  0  0  0
  1  8  2  0  0  0  0
  1 22  1  0  0  0  0
  2  7  1  0  0  0  0
  2 11  1  0  0  0  0
  2 12  1  0  0  0  0
  2 13  2  0  0  0  0
  3 18  1  0  0  0  0
  3 21  1  0  0  0  0
  4 23  1  0  0  0  0
 19  5  1  1  0  0  0
  5 54  1  0  0  0  0
 20  6  1  1  0  0  0
  6 55  1  0  0  0  0
  9 30  2  0  0  0  0
 10 33  1  0  0  0  0
 10 69  1  0  0  0  0
 11 70  1  0  0  0  0
 12 71  1  0  0  0  0
 14 36  2  0  0  0  0
 21 15  1  6  0  0  0
 15 30  1  0  0  0  0
 15 31  1  0  0  0  0
 16 30  1  0  0  0  0
 16 36  1  0  0  0  0
 16 65  1  0  0  0  0
 17 34  1  0  0  0  0
 17 67  1  0  0  0  0
 17 68  1  0  0  0  0
 18 19  1  0  0  0  0
 18 23  1  6  0  0  0
 18 37  1  0  0  0  0
 19 20  1  0  0  0  0
 19 38  1  0  0  0  0
 20 21  1  0  0  0  0
 20 39  1  0  0  0  0
 21 40  1  0  0  0  0
 22 24  1  0  0  0  0
 22 25  1  0  0  0  0
 22 41  1  0  0  0  0
 23 42  1  0  0  0  0
 23 43  1  0  0  0  0
 24 26  1  0  0  0  0
 24 44  1  0  0  0  0
 24 45  1  0  0  0  0
 25 27  1  0  0  0  0
 25 46  1  0  0  0  0
 25 47  1  0  0  0  0
 26 28  1  0  0  0  0
 26 48  1  0  0  0  0
 26 49  1  0  0  0  0
 27 29  1  0  0  0  0
 27 50  1  0  0  0  0
 27 51  1  0  0  0  0
 28 32  1  0  0  0  0
 28 52  1  0  0  0  0
 28 53  1  0  0  0  0
 29 33  1  0  0  0  0
 29 56  1  0  0  0  0
 29 57  1  0  0  0  0
 31 35  2  0  0  0  0
 31 60  1  0  0  0  0
 32 34  1  0  0  0  0
 32 58  1  0  0  0  0
 32 59  1  0  0  0  0
 33 61  1  0  0  0  0
 33 62  1  0  0  0  0
 34 63  1  0  0  0  0
 34 64  1  0  0  0  0
 35 36  1  0  0  0  0
 35 66  1  0  0  0  0
M  END
> <PUBCHEM_COMPOUND_CID>
87494913

> <PUBCHEM_COMPOUND_CANONICALIZED>
1

> <PUBCHEM_CACTVS_COMPLEXITY>
869

> <PUBCHEM_CACTVS_HBOND_ACCEPTOR>
13

> <PUBCHEM_CACTVS_HBOND_DONOR>
7

> <PUBCHEM_CACTVS_ROTATABLE_BOND>
16

> <PUBCHEM_CACTVS_SUBSKEYS>
AAADcfB7PAMAAAAAAAAAAAAAAAAAASAAAAAgAAAAAAAAAAAAAAAAHggQCCAACBTpgAYBAAPABxCIQCFWUICAAAAAAgAIAIAIAECDEAIAgAAOQAAPFyITAMHw8KIAAAAAAAAAAAAAAAAAAAAAAAAAAAAAAA==

> <PUBCHEM_IUPAC_OPENEYE_NAME>
[[6-amino-1-(4-hydroxybutyl)hexyl]-[[(2R,3S,4R,5R)-5-(2,4-dioxopyrimidin-1-yl)-3,4-dihydroxy-tetrahydrofuran-2-yl]methoxy]phosphoryl] dihydrogen phosphate

> <PUBCHEM_IUPAC_CAS_NAME>
[(10-amino-1-hydroxydecan-5-yl)-[[(2R,3S,4R,5R)-5-(2,4-dioxo-1-pyrimidinyl)-3,4-dihydroxy-2-oxolanyl]methoxy]phosphoryl] dihydrogen phosphate

> <PUBCHEM_IUPAC_NAME_MARKUP>
[(10-amino-1-hydroxydecan-5-yl)-[[(2<I>R</I>,3<I>S</I>,4<I>R</I>,5<I>R</I>)-5-(2,4-dioxopyrimidin-1-yl)-3,4-dihydroxyoxolan-2-yl]methoxy]phosphoryl] dihydrogen phosphate

> <PUBCHEM_IUPAC_NAME>
[(10-amino-1-hydroxydecan-5-yl)-[[(2R,3S,4R,5R)-5-(2,4-dioxopyrimidin-1-yl)-3,4-dihydroxyoxolan-2-yl]methoxy]phosphoryl] dihydrogen phosphate

> <PUBCHEM_IUPAC_SYSTEMATIC_NAME>
[(10-azanyl-1-oxidanyl-decan-5-yl)-[[(2R,3S,4R,5R)-5-[2,4-bis(oxidanylidene)pyrimidin-1-yl]-3,4-bis(oxidanyl)oxolan-2-yl]methoxy]phosphoryl] dihydrogen phosphate

> <PUBCHEM_IUPAC_TRADITIONAL_NAME>
[[6-amino-1-(4-hydroxybutyl)hexyl]-[[(2R,3S,4R,5R)-5-(2,4-diketopyrimidin-1-yl)-3,4-dihydroxy-tetrahydrofuran-2-yl]methoxy]phosphoryl] dihydrogen phosphate

> <PUBCHEM_IUPAC_INCHI>
InChI=1S/C19H35N3O12P2/c20-9-4-1-2-6-13(7-3-5-11-23)35(28,34-36(29,30)31)32-12-14-16(25)17(26)18(33-14)22-10-8-15(24)21-19(22)27/h8,10,13-14,16-18,23,25-26H,1-7,9,11-12,20H2,(H,21,24,27)(H2,29,30,31)/t13?,14-,16-,17-,18-,35?/m1/s1

> <PUBCHEM_IUPAC_INCHIKEY>
SIIWOTVCTCAWLJ-LGYHJORVSA-N

> <PUBCHEM_XLOGP3>
-5.6

> <PUBCHEM_EXACT_MASS>
559.16959756

> <PUBCHEM_MOLECULAR_FORMULA>
C19H35N3O12P2

> <PUBCHEM_MOLECULAR_WEIGHT>
559.4

> <PUBCHEM_OPENEYE_CAN_SMILES>
C1=CN(C(=O)NC1=O)C2C(C(C(O2)COP(=O)(C(CCCCCN)CCCCO)OP(=O)(O)O)O)O

> <PUBCHEM_OPENEYE_ISO_SMILES>
C1=CN(C(=O)NC1=O)[C@H]2[C@@H]([C@@H]([C@H](O2)COP(=O)(C(CCCCCN)CCCCO)OP(=O)(O)O)O)O

> <PUBCHEM_CACTVS_TPSA>
238

> <PUBCHEM_MONOISOTOPIC_WEIGHT>
559.16959756

> <PUBCHEM_TOTAL_CHARGE>
0

> <PUBCHEM_HEAVY_ATOM_COUNT>
36

> <PUBCHEM_ATOM_DEF_STEREO_COUNT>
4

> <PUBCHEM_ATOM_UDEF_STEREO_COUNT>
2

> <PUBCHEM_BOND_DEF_STEREO_COUNT>
0

> <PUBCHEM_BOND_UDEF_STEREO_COUNT>
0

> <PUBCHEM_ISOTOPIC_ATOM_COUNT>
0

> <PUBCHEM_COMPONENT_COUNT>
1

> <PUBCHEM_CACTVS_TAUTO_COUNT>
-1

> <PUBCHEM_COORDINATE_TYPE>
1
5
255

> <PUBCHEM_BONDANNOTATIONS>
1  4  3
21  15  6
15  30  8
15  31  8
16  30  8
16  36  8
18  23  6
22  24  3
31  35  8
35  36  8
19  5  5
20  6  5

$$$$
