 
  -OEChem-10192103292D

 72 74  0     0  0  0  0  0  0999 V2000
    8.0622    0.5000    0.0000 O   0  0  0  0  0  0  0  0  0  0  0  0
    7.1962   -2.0000    0.0000 O   0  0  0  0  0  0  0  0  0  0  0  0
    3.7320    2.0000    0.0000 O   0  0  0  0  0  0  0  0  0  0  0  0
    2.8660   -0.5000    0.0000 O   0  0  0  0  0  0  0  0  0  0  0  0
    8.9282    4.0000    0.0000 O   0  5  0  0  0  0  0  0  0  0  0  0
    2.0000   -4.0000    0.0000 O   0  5  0  0  0  0  0  0  0  0  0  0
    8.0622    2.5000    0.0000 O   0  0  0  0  0  0  0  0  0  0  0  0
    2.8660   -2.5000    0.0000 O   0  0  0  0  0  0  0  0  0  0  0  0
    5.4641    7.0000    0.0000 O   0  5  0  0  0  0  0  0  0  0  0  0
    5.4641   -7.0000    0.0000 O   0  5  0  0  0  0  0  0  0  0  0  0
    7.1962    7.0000    0.0000 O   0  0  0  0  0  0  0  0  0  0  0  0
    3.7320   -7.0000    0.0000 O   0  0  0  0  0  0  0  0  0  0  0  0
    6.3301    2.5000    0.0000 N   0  0  0  0  0  0  0  0  0  0  0  0
    4.5981   -2.5000    0.0000 N   0  0  0  0  0  0  0  0  0  0  0  0
    8.0622    3.5000    0.0000 N   0  3  0  0  0  0  0  0  0  0  0  0
    2.8660   -3.5000    0.0000 N   0  3  0  0  0  0  0  0  0  0  0  0
    6.3301    6.5000    0.0000 N   0  3  0  0  0  0  0  0  0  0  0  0
    4.5981   -6.5000    0.0000 N   0  3  0  0  0  0  0  0  0  0  0  0
    7.1962    2.0000    0.0000 C   0  0  0  0  0  0  0  0  0  0  0  0
    5.4641    2.0000    0.0000 C   0  0  0  0  0  0  0  0  0  0  0  0
    5.4641   -2.0000    0.0000 C   0  0  0  0  0  0  0  0  0  0  0  0
    3.7320   -2.0000    0.0000 C   0  0  0  0  0  0  0  0  0  0  0  0
    6.3301    3.5000    0.0000 C   0  0  0  0  0  0  0  0  0  0  0  0
    4.5981   -3.5000    0.0000 C   0  0  0  0  0  0  0  0  0  0  0  0
    7.1962    1.0000    0.0000 C   0  0  0  0  0  0  0  0  0  0  0  0
    6.3301   -2.5000    0.0000 C   0  0  0  0  0  0  0  0  0  0  0  0
    4.5981    2.5000    0.0000 C   0  0  0  0  0  0  0  0  0  0  0  0
    3.7320   -1.0000    0.0000 C   0  0  0  0  0  0  0  0  0  0  0  0
    7.1962    4.0000    0.0000 C   0  0  0  0  0  0  0  0  0  0  0  0
    3.7320   -4.0000    0.0000 C   0  0  0  0  0  0  0  0  0  0  0  0
    8.0622   -0.5000    0.0000 C   0  0  0  0  0  0  0  0  0  0  0  0
    7.1962   -1.0000    0.0000 C   0  0  0  0  0  0  0  0  0  0  0  0
    3.7320    1.0000    0.0000 C   0  0  0  0  0  0  0  0  0  0  0  0
    2.8660    0.5000    0.0000 C   0  0  0  0  0  0  0  0  0  0  0  0
    5.4641    4.0000    0.0000 C   0  0  0  0  0  0  0  0  0  0  0  0
    5.4641   -4.0000    0.0000 C   0  0  0  0  0  0  0  0  0  0  0  0
    7.1962    5.0000    0.0000 C   0  0  0  0  0  0  0  0  0  0  0  0
    3.7320   -5.0000    0.0000 C   0  0  0  0  0  0  0  0  0  0  0  0
    5.4641    5.0000    0.0000 C   0  0  0  0  0  0  0  0  0  0  0  0
    5.4641   -5.0000    0.0000 C   0  0  0  0  0  0  0  0  0  0  0  0
    6.3301    5.5000    0.0000 C   0  0  0  0  0  0  0  0  0  0  0  0
    4.5981   -5.5000    0.0000 C   0  0  0  0  0  0  0  0  0  0  0  0
    7.8067    1.8923    0.0000 H   0  0  0  0  0  0  0  0  0  0  0  0
    7.4082    2.5826    0.0000 H   0  0  0  0  0  0  0  0  0  0  0  0
    5.0656    1.5250    0.0000 H   0  0  0  0  0  0  0  0  0  0  0  0
    5.8626    1.5250    0.0000 H   0  0  0  0  0  0  0  0  0  0  0  0
    5.8626   -1.5250    0.0000 H   0  0  0  0  0  0  0  0  0  0  0  0
    5.0656   -1.5250    0.0000 H   0  0  0  0  0  0  0  0  0  0  0  0
    3.1215   -1.8923    0.0000 H   0  0  0  0  0  0  0  0  0  0  0  0
    3.5200   -2.5826    0.0000 H   0  0  0  0  0  0  0  0  0  0  0  0
    6.5856    1.1077    0.0000 H   0  0  0  0  0  0  0  0  0  0  0  0
    6.9841    0.4174    0.0000 H   0  0  0  0  0  0  0  0  0  0  0  0
    5.9316   -2.9750    0.0000 H   0  0  0  0  0  0  0  0  0  0  0  0
    6.7287   -2.9750    0.0000 H   0  0  0  0  0  0  0  0  0  0  0  0
    4.9966    2.9750    0.0000 H   0  0  0  0  0  0  0  0  0  0  0  0
    4.1996    2.9750    0.0000 H   0  0  0  0  0  0  0  0  0  0  0  0
    4.3426   -1.1077    0.0000 H   0  0  0  0  0  0  0  0  0  0  0  0
    3.9441   -0.4174    0.0000 H   0  0  0  0  0  0  0  0  0  0  0  0
    8.2742   -1.0826    0.0000 H   0  0  0  0  0  0  0  0  0  0  0  0
    8.6728   -0.3923    0.0000 H   0  0  0  0  0  0  0  0  0  0  0  0
    6.9841   -0.4174    0.0000 H   0  0  0  0  0  0  0  0  0  0  0  0
    6.5856   -1.1077    0.0000 H   0  0  0  0  0  0  0  0  0  0  0  0
    3.9441    0.4174    0.0000 H   0  0  0  0  0  0  0  0  0  0  0  0
    4.3426    1.1077    0.0000 H   0  0  0  0  0  0  0  0  0  0  0  0
    2.6540    1.0826    0.0000 H   0  0  0  0  0  0  0  0  0  0  0  0
    2.2554    0.3923    0.0000 H   0  0  0  0  0  0  0  0  0  0  0  0
    4.9272    3.6900    0.0000 H   0  0  0  0  0  0  0  0  0  0  0  0
    6.0010   -3.6900    0.0000 H   0  0  0  0  0  0  0  0  0  0  0  0
    7.7331    5.3100    0.0000 H   0  0  0  0  0  0  0  0  0  0  0  0
    3.1951   -5.3100    0.0000 H   0  0  0  0  0  0  0  0  0  0  0  0
    4.9272    5.3100    0.0000 H   0  0  0  0  0  0  0  0  0  0  0  0
    6.0010   -5.3100    0.0000 H   0  0  0  0  0  0  0  0  0  0  0  0
  1 25  1  0  0  0  0
  1 31  1  0  0  0  0
  2 26  1  0  0  0  0
  2 32  1  0  0  0  0
  3 27  1  0  0  0  0
  3 33  1  0  0  0  0
  4 28  1  0  0  0  0
  4 34  1  0  0  0  0
  5 15  1  0  0  0  0
  6 16  1  0  0  0  0
  7 15  2  0  0  0  0
  8 16  2  0  0  0  0
  9 17  1  0  0  0  0
 10 18  1  0  0  0  0
 11 17  2  0  0  0  0
 12 18  2  0  0  0  0
 13 19  1  0  0  0  0
 13 20  1  0  0  0  0
 13 23  1  0  0  0  0
 14 21  1  0  0  0  0
 14 22  1  0  0  0  0
 14 24  1  0  0  0  0
 15 29  1  0  0  0  0
 16 30  1  0  0  0  0
 17 41  1  0  0  0  0
 18 42  1  0  0  0  0
 19 25  1  0  0  0  0
 19 43  1  0  0  0  0
 19 44  1  0  0  0  0
 20 27  1  0  0  0  0
 20 45  1  0  0  0  0
 20 46  1  0  0  0  0
 21 26  1  0  0  0  0
 21 47  1  0  0  0  0
 21 48  1  0  0  0  0
 22 28  1  0  0  0  0
 22 49  1  0  0  0  0
 22 50  1  0  0  0  0
 23 29  2  0  0  0  0
 23 35  1  0  0  0  0
 24 30  2  0  0  0  0
 24 36  1  0  0  0  0
 25 51  1  0  0  0  0
 25 52  1  0  0  0  0
 26 53  1  0  0  0  0
 26 54  1  0  0  0  0
 27 55  1  0  0  0  0
 27 56  1  0  0  0  0
 28 57  1  0  0  0  0
 28 58  1  0  0  0  0
 29 37  1  0  0  0  0
 30 38  1  0  0  0  0
 31 32  1  0  0  0  0
 31 59  1  0  0  0  0
 31 60  1  0  0  0  0
 32 61  1  0  0  0  0
 32 62  1  0  0  0  0
 33 34  1  0  0  0  0
 33 63  1  0  0  0  0
 33 64  1  0  0  0  0
 34 65  1  0  0  0  0
 34 66  1  0  0  0  0
 35 39  2  0  0  0  0
 35 67  1  0  0  0  0
 36 40  2  0  0  0  0
 36 68  1  0  0  0  0
 37 41  2  0  0  0  0
 37 69  1  0  0  0  0
 38 42  2  0  0  0  0
 38 70  1  0  0  0  0
 39 41  1  0  0  0  0
 39 71  1  0  0  0  0
 40 42  1  0  0  0  0
 40 72  1  0  0  0  0
M  CHG  8   5  -1   6  -1   9  -1  10  -1  15   1  16   1  17   1  18   1
M  END
> <PUBCHEM_COMPOUND_CID>
636071

> <PUBCHEM_COMPOUND_CANONICALIZED>
1

> <PUBCHEM_CACTVS_COMPLEXITY>
788

> <PUBCHEM_CACTVS_HBOND_ACCEPTOR>
14

> <PUBCHEM_CACTVS_HBOND_DONOR>
0

> <PUBCHEM_CACTVS_ROTATABLE_BOND>
2

> <PUBCHEM_CACTVS_SUBSKEYS>
AAADceB7vAAAAAAAAAAAAAAAAAAAAAAAAAAwYAAAAAAAAAABQAAAHgAEAAAACAjhkAYwwIMQRACBACRCQwCCAAAhAgAoiAAIdIoLYCLA0dGXIAhggIDayAcQAAAAAACAAAQAACAAAQAACAAAQAAAAAAAAA==

> <PUBCHEM_IUPAC_OPENEYE_NAME>
7,16-bis(2,4-dinitrophenyl)-1,4,10,13-tetraoxa-7,16-diazacyclooctadecane

> <PUBCHEM_IUPAC_CAS_NAME>
7,16-bis(2,4-dinitrophenyl)-1,4,10,13-tetraoxa-7,16-diazacyclooctadecane

> <PUBCHEM_IUPAC_NAME_MARKUP>
7,16-bis(2,4-dinitrophenyl)-1,4,10,13-tetraoxa-7,16-diazacyclooctadecane

> <PUBCHEM_IUPAC_NAME>
7,16-bis(2,4-dinitrophenyl)-1,4,10,13-tetraoxa-7,16-diazacyclooctadecane

> <PUBCHEM_IUPAC_SYSTEMATIC_NAME>
7,16-bis(2,4-dinitrophenyl)-1,4,10,13-tetraoxa-7,16-diazacyclooctadecane

> <PUBCHEM_IUPAC_TRADITIONAL_NAME>
7,16-bis(2,4-dinitrophenyl)-1,4,10,13-tetraoxa-7,16-diazacyclooctadecane

> <PUBCHEM_IUPAC_INCHI>
InChI=1S/C24H30N6O12/c31-27(32)19-1-3-21(23(17-19)29(35)36)25-5-9-39-13-15-41-11-7-26(8-12-42-16-14-40-10-6-25)22-4-2-20(28(33)34)18-24(22)30(37)38/h1-4,17-18H,5-16H2

> <PUBCHEM_IUPAC_INCHIKEY>
ZGVFGUDOEWWJNJ-UHFFFAOYSA-N

> <PUBCHEM_XLOGP3_AA>
2.4

> <PUBCHEM_EXACT_MASS>
594.19217041

> <PUBCHEM_MOLECULAR_FORMULA>
C24H30N6O12

> <PUBCHEM_MOLECULAR_WEIGHT>
594.5

> <PUBCHEM_OPENEYE_CAN_SMILES>
C1COCCOCCN(CCOCCOCCN1C2=C(C=C(C=C2)[N+](=O)[O-])[N+](=O)[O-])C3=C(C=C(C=C3)[N+](=O)[O-])[N+](=O)[O-]

> <PUBCHEM_OPENEYE_ISO_SMILES>
C1COCCOCCN(CCOCCOCCN1C2=C(C=C(C=C2)[N+](=O)[O-])[N+](=O)[O-])C3=C(C=C(C=C3)[N+](=O)[O-])[N+](=O)[O-]

> <PUBCHEM_CACTVS_TPSA>
227

> <PUBCHEM_MONOISOTOPIC_WEIGHT>
594.19217041

> <PUBCHEM_TOTAL_CHARGE>
0

> <PUBCHEM_HEAVY_ATOM_COUNT>
42

> <PUBCHEM_ATOM_DEF_STEREO_COUNT>
0

> <PUBCHEM_ATOM_UDEF_STEREO_COUNT>
0

> <PUBCHEM_BOND_DEF_STEREO_COUNT>
0

> <PUBCHEM_BOND_UDEF_STEREO_COUNT>
0

> <PUBCHEM_ISOTOPIC_ATOM_COUNT>
0

> <PUBCHEM_COMPONENT_COUNT>
1

> <PUBCHEM_CACTVS_TAUTO_COUNT>
-1

> <PUBCHEM_COORDINATE_TYPE>
1
5
255

> <PUBCHEM_BONDANNOTATIONS>
23  29  8
23  35  8
24  30  8
24  36  8
29  37  8
30  38  8
35  39  8
36  40  8
37  41  8
38  42  8
39  41  8
40  42  8

$$$$
