 
  -OEChem-10192103512D

 46 48  0     1  0  0  0  0  0999 V2000
    5.1350    0.1377    0.0000 O   0  0  0  0  0  0  0  0  0  0  0  0
    6.8671    0.1377    0.0000 O   0  0  0  0  0  0  0  0  0  0  0  0
    5.1350   -2.8623    0.0000 O   0  0  0  0  0  0  0  0  0  0  0  0
    3.4030   -1.8623    0.0000 O   0  0  0  0  0  0  0  0  0  0  0  0
    6.8671   -1.8623    0.0000 O   0  0  0  0  0  0  0  0  0  0  0  0
    2.5369   -0.3623    0.0000 O   0  0  0  0  0  0  0  0  0  0  0  0
    6.8671    3.1377    0.0000 O   0  0  0  0  0  0  0  0  0  0  0  0
    5.1350    1.1377    0.0000 O   0  0  0  0  0  0  0  0  0  0  0  0
   10.3972    3.1618    0.0000 O   0  0  0  0  0  0  0  0  0  0  0  0
    5.1350    3.1377    0.0000 O   0  0  0  0  0  0  0  0  0  0  0  0
   11.2690    1.6652    0.0000 O   0  0  0  0  0  0  0  0  0  0  0  0
    5.1350   -1.8623    0.0000 C   0  0  1  0  0  0  0  0  0  0  0  0
    4.2690   -1.3623    0.0000 C   0  0  1  0  0  0  0  0  0  0  0  0
    6.0010   -1.3623    0.0000 C   0  0  2  0  0  0  0  0  0  0  0  0
    4.2690   -0.3623    0.0000 C   0  0  1  0  0  0  0  0  0  0  0  0
    6.0010   -0.3623    0.0000 C   0  0  1  0  0  0  0  0  0  0  0  0
    3.4030    0.1377    0.0000 C   0  0  0  0  0  0  0  0  0  0  0  0
    6.8671    1.1377    0.0000 C   0  0  0  0  0  0  0  0  0  0  0  0
    7.7331    1.6377    0.0000 C   0  0  0  0  0  0  0  0  0  0  0  0
    6.0010    1.6377    0.0000 C   0  0  0  0  0  0  0  0  0  0  0  0
    7.7331    2.6377    0.0000 C   0  0  0  0  0  0  0  0  0  0  0  0
    8.6270    1.1030    0.0000 C   0  0  0  0  0  0  0  0  0  0  0  0
    6.0010    2.6377    0.0000 C   0  0  0  0  0  0  0  0  0  0  0  0
    8.6270    3.1723    0.0000 C   0  0  0  0  0  0  0  0  0  0  0  0
    9.5331    1.6168    0.0000 C   0  0  0  0  0  0  0  0  0  0  0  0
    9.5331    2.6585    0.0000 C   0  0  0  0  0  0  0  0  0  0  0  0
   11.2651    2.6652    0.0000 C   0  0  0  0  0  0  0  0  0  0  0  0
   12.1292    3.1685    0.0000 C   0  0  0  0  0  0  0  0  0  0  0  0
    4.5981   -2.1723    0.0000 H   0  0  0  0  0  0  0  0  0  0  0  0
    4.2690   -1.9823    0.0000 H   0  0  0  0  0  0  0  0  0  0  0  0
    6.0010   -1.9823    0.0000 H   0  0  0  0  0  0  0  0  0  0  0  0
    4.2690    0.2577    0.0000 H   0  0  0  0  0  0  0  0  0  0  0  0
    6.0010    0.2577    0.0000 H   0  0  0  0  0  0  0  0  0  0  0  0
    3.8015    0.6126    0.0000 H   0  0  0  0  0  0  0  0  0  0  0  0
    3.0044    0.6126    0.0000 H   0  0  0  0  0  0  0  0  0  0  0  0
    4.5981   -3.1723    0.0000 H   0  0  0  0  0  0  0  0  0  0  0  0
    3.4030   -2.4823    0.0000 H   0  0  0  0  0  0  0  0  0  0  0  0
    6.8671   -2.4823    0.0000 H   0  0  0  0  0  0  0  0  0  0  0  0
    2.0000   -0.0523    0.0000 H   0  0  0  0  0  0  0  0  0  0  0  0
    8.6199    0.4830    0.0000 H   0  0  0  0  0  0  0  0  0  0  0  0
    8.6199    3.7923    0.0000 H   0  0  0  0  0  0  0  0  0  0  0  0
   10.0688    1.3048    0.0000 H   0  0  0  0  0  0  0  0  0  0  0  0
    4.5981    1.4477    0.0000 H   0  0  0  0  0  0  0  0  0  0  0  0
   12.4413    2.6328    0.0000 H   0  0  0  0  0  0  0  0  0  0  0  0
   12.6650    3.4806    0.0000 H   0  0  0  0  0  0  0  0  0  0  0  0
   11.8172    3.7042    0.0000 H   0  0  0  0  0  0  0  0  0  0  0  0
  1 15  1  0  0  0  0
  1 16  1  0  0  0  0
 16  2  1  1  0  0  0
  2 18  1  0  0  0  0
 12  3  1  1  0  0  0
  3 36  1  0  0  0  0
 13  4  1  6  0  0  0
  4 37  1  0  0  0  0
 14  5  1  6  0  0  0
  5 38  1  0  0  0  0
  6 17  1  0  0  0  0
  6 39  1  0  0  0  0
  7 21  1  0  0  0  0
  7 23  1  0  0  0  0
  8 20  1  0  0  0  0
  8 43  1  0  0  0  0
  9 26  1  0  0  0  0
  9 27  1  0  0  0  0
 10 23  2  0  0  0  0
 11 27  2  0  0  0  0
 12 13  1  0  0  0  0
 12 14  1  0  0  0  0
 12 29  1  0  0  0  0
 13 15  1  0  0  0  0
 13 30  1  0  0  0  0
 14 16  1  0  0  0  0
 14 31  1  0  0  0  0
 15 17  1  1  0  0  0
 15 32  1  0  0  0  0
 16 33  1  0  0  0  0
 17 34  1  0  0  0  0
 17 35  1  0  0  0  0
 18 19  1  0  0  0  0
 18 20  2  0  0  0  0
 19 21  2  0  0  0  0
 19 22  1  0  0  0  0
 20 23  1  0  0  0  0
 21 24  1  0  0  0  0
 22 25  2  0  0  0  0
 22 40  1  0  0  0  0
 24 26  2  0  0  0  0
 24 41  1  0  0  0  0
 25 26  1  0  0  0  0
 25 42  1  0  0  0  0
 27 28  1  0  0  0  0
 28 44  1  0  0  0  0
 28 45  1  0  0  0  0
 28 46  1  0  0  0  0
M  END
> <PUBCHEM_COMPOUND_CID>
53885615

> <PUBCHEM_COMPOUND_CANONICALIZED>
1

> <PUBCHEM_CACTVS_COMPLEXITY>
647

> <PUBCHEM_CACTVS_HBOND_ACCEPTOR>
11

> <PUBCHEM_CACTVS_HBOND_DONOR>
5

> <PUBCHEM_CACTVS_ROTATABLE_BOND>
5

> <PUBCHEM_CACTVS_SUBSKEYS>
AAADceB4PAAAAAAAAAAAAAAAAAAAAAAAAAA0QIAAAAAAAACBAAAAGgAACAAADBSwmAMyDoAABgCIAiDSCAICCAAgIAAIiABGCMgdNyKEMRqieiClwBUPqQfA4CwOIAAACAAIAABAAAAQABAAAAAAAAAAAA==

> <PUBCHEM_IUPAC_OPENEYE_NAME>
[3-hydroxy-2-oxo-4-[(2S,3R,4S,5S,6R)-3,4,5-trihydroxy-6-(hydroxymethyl)tetrahydropyran-2-yl]oxy-chromen-7-yl] acetate

> <PUBCHEM_IUPAC_CAS_NAME>
acetic acid [3-hydroxy-2-oxo-4-[[(2S,3R,4S,5S,6R)-3,4,5-trihydroxy-6-(hydroxymethyl)-2-oxanyl]oxy]-1-benzopyran-7-yl] ester

> <PUBCHEM_IUPAC_NAME_MARKUP>
[3-hydroxy-2-oxo-4-[(2<I>S</I>,3<I>R</I>,4<I>S</I>,5<I>S</I>,6<I>R</I>)-3,4,5-trihydroxy-6-(hydroxymethyl)oxan-2-yl]oxychromen-7-yl] acetate

> <PUBCHEM_IUPAC_NAME>
[3-hydroxy-2-oxo-4-[(2S,3R,4S,5S,6R)-3,4,5-trihydroxy-6-(hydroxymethyl)oxan-2-yl]oxychromen-7-yl] acetate

> <PUBCHEM_IUPAC_SYSTEMATIC_NAME>
[4-[(2S,3R,4S,5S,6R)-6-(hydroxymethyl)-3,4,5-tris(oxidanyl)oxan-2-yl]oxy-3-oxidanyl-2-oxidanylidene-chromen-7-yl] ethanoate

> <PUBCHEM_IUPAC_TRADITIONAL_NAME>
acetic acid [3-hydroxy-2-keto-4-[(2S,3R,4S,5S,6R)-3,4,5-trihydroxy-6-methylol-tetrahydropyran-2-yl]oxy-chromen-7-yl] ester

> <PUBCHEM_IUPAC_INCHI>
InChI=1S/C17H18O11/c1-6(19)25-7-2-3-8-9(4-7)26-16(24)14(23)15(8)28-17-13(22)12(21)11(20)10(5-18)27-17/h2-4,10-13,17-18,20-23H,5H2,1H3/t10-,11-,12+,13-,17+/m1/s1

> <PUBCHEM_IUPAC_INCHIKEY>
HMXLUXVKQKYXCP-GUFWIUQMSA-N

> <PUBCHEM_XLOGP3_AA>
-0.9

> <PUBCHEM_EXACT_MASS>
398.08491139

> <PUBCHEM_MOLECULAR_FORMULA>
C17H18O11

> <PUBCHEM_MOLECULAR_WEIGHT>
398.3

> <PUBCHEM_OPENEYE_CAN_SMILES>
CC(=O)OC1=CC2=C(C=C1)C(=C(C(=O)O2)O)OC3C(C(C(C(O3)CO)O)O)O

> <PUBCHEM_OPENEYE_ISO_SMILES>
CC(=O)OC1=CC2=C(C=C1)C(=C(C(=O)O2)O)O[C@H]3[C@@H]([C@H]([C@@H]([C@H](O3)CO)O)O)O

> <PUBCHEM_CACTVS_TPSA>
172

> <PUBCHEM_MONOISOTOPIC_WEIGHT>
398.08491139

> <PUBCHEM_TOTAL_CHARGE>
0

> <PUBCHEM_HEAVY_ATOM_COUNT>
28

> <PUBCHEM_ATOM_DEF_STEREO_COUNT>
5

> <PUBCHEM_ATOM_UDEF_STEREO_COUNT>
0

> <PUBCHEM_BOND_DEF_STEREO_COUNT>
0

> <PUBCHEM_BOND_UDEF_STEREO_COUNT>
0

> <PUBCHEM_ISOTOPIC_ATOM_COUNT>
0

> <PUBCHEM_COMPONENT_COUNT>
1

> <PUBCHEM_CACTVS_TAUTO_COUNT>
-1

> <PUBCHEM_COORDINATE_TYPE>
1
5
255

> <PUBCHEM_BONDANNOTATIONS>
15  17  5
18  19  8
18  20  8
19  21  8
19  22  8
16  2  5
20  23  8
21  24  8
22  25  8
24  26  8
25  26  8
12  3  5
13  4  6
14  5  6
7  21  8
7  23  8

$$$$
