 
  -OEChem-10192103502D

 64 63  0     1  0  0  0  0  0999 V2000
   10.3312   -0.0950    0.0000 O   0  0  0  0  0  0  0  0  0  0  0  0
   11.1972    1.4050    0.0000 O   0  0  0  0  0  0  0  0  0  0  0  0
    6.8671   -0.0950    0.0000 O   0  0  0  0  0  0  0  0  0  0  0  0
    8.5991   -1.0950    0.0000 O   0  0  0  0  0  0  0  0  0  0  0  0
    5.1350   -1.0950    0.0000 O   0  0  0  0  0  0  0  0  0  0  0  0
    6.0010    1.4050    0.0000 O   0  0  0  0  0  0  0  0  0  0  0  0
    2.5369    0.4050    0.0000 O   0  0  0  0  0  0  0  0  0  0  0  0
    3.4030   -1.0950    0.0000 O   0  0  0  0  0  0  0  0  0  0  0  0
   16.3933    0.4050    0.0000 C   0  0  0  0  0  0  0  0  0  0  0  0
   15.5273   -0.0950    0.0000 C   0  0  0  0  0  0  0  0  0  0  0  0
   17.2594   -0.0950    0.0000 C   0  0  0  0  0  0  0  0  0  0  0  0
   14.6613    0.4050    0.0000 C   0  0  0  0  0  0  0  0  0  0  0  0
   18.1254    0.4050    0.0000 C   0  0  0  0  0  0  0  0  0  0  0  0
   13.7953   -0.0950    0.0000 C   0  0  0  0  0  0  0  0  0  0  0  0
   18.9914   -0.0950    0.0000 C   0  0  0  0  0  0  0  0  0  0  0  0
   19.8574    0.4050    0.0000 C   0  0  0  0  0  0  0  0  0  0  0  0
   12.9292    0.4050    0.0000 C   0  0  0  0  0  0  0  0  0  0  0  0
   20.7235   -0.0950    0.0000 C   0  0  0  0  0  0  0  0  0  0  0  0
   12.0632   -0.0950    0.0000 C   0  0  0  0  0  0  0  0  0  0  0  0
   21.5895    0.4050    0.0000 C   0  0  0  0  0  0  0  0  0  0  0  0
   11.1972    0.4050    0.0000 C   0  0  0  0  0  0  0  0  0  0  0  0
    9.4651    0.4050    0.0000 C   0  0  0  0  0  0  0  0  0  0  0  0
    8.5991   -0.0950    0.0000 C   0  0  3  0  0  0  0  0  0  0  0  0
    7.7331    0.4050    0.0000 C   0  0  0  0  0  0  0  0  0  0  0  0
    5.1350   -0.0950    0.0000 C   0  0  1  0  0  0  0  0  0  0  0  0
    6.0010    0.4050    0.0000 C   0  0  0  0  0  0  0  0  0  0  0  0
    4.2690    0.4050    0.0000 C   0  0  0  0  0  0  0  0  0  0  0  0
    3.4030   -0.0950    0.0000 C   0  0  0  0  0  0  0  0  0  0  0  0
   16.7919    0.8799    0.0000 H   0  0  0  0  0  0  0  0  0  0  0  0
   15.9948    0.8799    0.0000 H   0  0  0  0  0  0  0  0  0  0  0  0
   15.1288   -0.5699    0.0000 H   0  0  0  0  0  0  0  0  0  0  0  0
   15.9258   -0.5699    0.0000 H   0  0  0  0  0  0  0  0  0  0  0  0
   16.8608   -0.5699    0.0000 H   0  0  0  0  0  0  0  0  0  0  0  0
   17.6579   -0.5699    0.0000 H   0  0  0  0  0  0  0  0  0  0  0  0
   15.0598    0.8799    0.0000 H   0  0  0  0  0  0  0  0  0  0  0  0
   14.2628    0.8799    0.0000 H   0  0  0  0  0  0  0  0  0  0  0  0
   18.5239    0.8799    0.0000 H   0  0  0  0  0  0  0  0  0  0  0  0
   17.7269    0.8799    0.0000 H   0  0  0  0  0  0  0  0  0  0  0  0
   13.3967   -0.5699    0.0000 H   0  0  0  0  0  0  0  0  0  0  0  0
   14.1938   -0.5699    0.0000 H   0  0  0  0  0  0  0  0  0  0  0  0
   18.5929   -0.5699    0.0000 H   0  0  0  0  0  0  0  0  0  0  0  0
   19.3899   -0.5699    0.0000 H   0  0  0  0  0  0  0  0  0  0  0  0
   13.3278    0.8799    0.0000 H   0  0  0  0  0  0  0  0  0  0  0  0
   12.5307    0.8799    0.0000 H   0  0  0  0  0  0  0  0  0  0  0  0
   20.2560    0.8799    0.0000 H   0  0  0  0  0  0  0  0  0  0  0  0
   19.4589    0.8799    0.0000 H   0  0  0  0  0  0  0  0  0  0  0  0
   20.3249   -0.5699    0.0000 H   0  0  0  0  0  0  0  0  0  0  0  0
   21.1220   -0.5699    0.0000 H   0  0  0  0  0  0  0  0  0  0  0  0
   11.6647   -0.5699    0.0000 H   0  0  0  0  0  0  0  0  0  0  0  0
   12.4617   -0.5699    0.0000 H   0  0  0  0  0  0  0  0  0  0  0  0
   21.8995   -0.1319    0.0000 H   0  0  0  0  0  0  0  0  0  0  0  0
   22.1264    0.7150    0.0000 H   0  0  0  0  0  0  0  0  0  0  0  0
   21.2795    0.9419    0.0000 H   0  0  0  0  0  0  0  0  0  0  0  0
    9.8637    0.8799    0.0000 H   0  0  0  0  0  0  0  0  0  0  0  0
    9.0666    0.8799    0.0000 H   0  0  0  0  0  0  0  0  0  0  0  0
    8.0622   -0.4050    0.0000 H   0  0  0  0  0  0  0  0  0  0  0  0
    8.1316    0.8799    0.0000 H   0  0  0  0  0  0  0  0  0  0  0  0
    7.3346    0.8799    0.0000 H   0  0  0  0  0  0  0  0  0  0  0  0
    9.1360   -1.4050    0.0000 H   0  0  0  0  0  0  0  0  0  0  0  0
    5.6720   -0.4050    0.0000 H   0  0  0  0  0  0  0  0  0  0  0  0
    4.6675    0.8799    0.0000 H   0  0  0  0  0  0  0  0  0  0  0  0
    3.8705    0.8799    0.0000 H   0  0  0  0  0  0  0  0  0  0  0  0
    4.5981   -1.4050    0.0000 H   0  0  0  0  0  0  0  0  0  0  0  0
    2.0000    0.0950    0.0000 H   0  0  0  0  0  0  0  0  0  0  0  0
  1 21  1  0  0  0  0
  1 22  1  0  0  0  0
  2 21  2  0  0  0  0
  3 24  1  0  0  0  0
  3 26  1  0  0  0  0
  4 23  1  0  0  0  0
  4 59  1  0  0  0  0
 25  5  1  6  0  0  0
  5 63  1  0  0  0  0
  6 26  2  0  0  0  0
  7 28  1  0  0  0  0
  7 64  1  0  0  0  0
  8 28  2  0  0  0  0
  9 10  1  0  0  0  0
  9 11  1  0  0  0  0
  9 29  1  0  0  0  0
  9 30  1  0  0  0  0
 10 12  1  0  0  0  0
 10 31  1  0  0  0  0
 10 32  1  0  0  0  0
 11 13  1  0  0  0  0
 11 33  1  0  0  0  0
 11 34  1  0  0  0  0
 12 14  1  0  0  0  0
 12 35  1  0  0  0  0
 12 36  1  0  0  0  0
 13 15  1  0  0  0  0
 13 37  1  0  0  0  0
 13 38  1  0  0  0  0
 14 17  1  0  0  0  0
 14 39  1  0  0  0  0
 14 40  1  0  0  0  0
 15 16  1  0  0  0  0
 15 41  1  0  0  0  0
 15 42  1  0  0  0  0
 16 18  1  0  0  0  0
 16 45  1  0  0  0  0
 16 46  1  0  0  0  0
 17 19  1  0  0  0  0
 17 43  1  0  0  0  0
 17 44  1  0  0  0  0
 18 20  1  0  0  0  0
 18 47  1  0  0  0  0
 18 48  1  0  0  0  0
 19 21  1  0  0  0  0
 19 49  1  0  0  0  0
 19 50  1  0  0  0  0
 20 51  1  0  0  0  0
 20 52  1  0  0  0  0
 20 53  1  0  0  0  0
 22 23  1  0  0  0  0
 22 54  1  0  0  0  0
 22 55  1  0  0  0  0
 23 24  1  0  0  0  0
 23 56  1  0  0  0  0
 24 57  1  0  0  0  0
 24 58  1  0  0  0  0
 25 26  1  0  0  0  0
 25 27  1  0  0  0  0
 25 60  1  0  0  0  0
 27 28  1  0  0  0  0
 27 61  1  0  0  0  0
 27 62  1  0  0  0  0
M  END
> <PUBCHEM_COMPOUND_CID>
101827617

> <PUBCHEM_COMPOUND_CANONICALIZED>
1

> <PUBCHEM_CACTVS_COMPLEXITY>
438

> <PUBCHEM_CACTVS_HBOND_ACCEPTOR>
8

> <PUBCHEM_CACTVS_HBOND_DONOR>
3

> <PUBCHEM_CACTVS_ROTATABLE_BOND>
20

> <PUBCHEM_CACTVS_SUBSKEYS>
AAADcfB4PAAAAAAAAAAAAAAAAAAAAAAAAAAAAAAAAAAAAAAAAAAAGgAACAAACBSggAICCAAABgAIAACQCAIAAAAAAAAAAAFAAAABEBYAAAACQAAFIAADAAHLyKCAAAAAAAAAAAAAAAAAAAAAAAAAAAAAAA==

> <PUBCHEM_IUPAC_OPENEYE_NAME>
(3R)-3-hydroxy-4-(2-hydroxy-3-tridecanoyloxy-propoxy)-4-oxo-butanoic acid

> <PUBCHEM_IUPAC_CAS_NAME>
(3R)-3-hydroxy-4-[2-hydroxy-3-(1-oxotridecoxy)propoxy]-4-oxobutanoic acid

> <PUBCHEM_IUPAC_NAME_MARKUP>
(3<I>R</I>)-3-hydroxy-4-(2-hydroxy-3-tridecanoyloxypropoxy)-4-oxobutanoic acid

> <PUBCHEM_IUPAC_NAME>
(3R)-3-hydroxy-4-(2-hydroxy-3-tridecanoyloxypropoxy)-4-oxobutanoic acid

> <PUBCHEM_IUPAC_SYSTEMATIC_NAME>
(3R)-3-oxidanyl-4-oxidanylidene-4-(2-oxidanyl-3-tridecanoyloxy-propoxy)butanoic acid

> <PUBCHEM_IUPAC_TRADITIONAL_NAME>
(3R)-3-hydroxy-4-(2-hydroxy-3-tridecanoyloxy-propoxy)-4-keto-butyric acid

> <PUBCHEM_IUPAC_INCHI>
InChI=1S/C20H36O8/c1-2-3-4-5-6-7-8-9-10-11-12-19(25)27-14-16(21)15-28-20(26)17(22)13-18(23)24/h16-17,21-22H,2-15H2,1H3,(H,23,24)/t16?,17-/m1/s1

> <PUBCHEM_IUPAC_INCHIKEY>
DYIKETOMFUFLOA-ZYMOGRSISA-N

> <PUBCHEM_XLOGP3_AA>
4

> <PUBCHEM_EXACT_MASS>
404.24101810

> <PUBCHEM_MOLECULAR_FORMULA>
C20H36O8

> <PUBCHEM_MOLECULAR_WEIGHT>
404.5

> <PUBCHEM_OPENEYE_CAN_SMILES>
CCCCCCCCCCCCC(=O)OCC(COC(=O)C(CC(=O)O)O)O

> <PUBCHEM_OPENEYE_ISO_SMILES>
CCCCCCCCCCCCC(=O)OCC(COC(=O)[C@@H](CC(=O)O)O)O

> <PUBCHEM_CACTVS_TPSA>
130

> <PUBCHEM_MONOISOTOPIC_WEIGHT>
404.24101810

> <PUBCHEM_TOTAL_CHARGE>
0

> <PUBCHEM_HEAVY_ATOM_COUNT>
28

> <PUBCHEM_ATOM_DEF_STEREO_COUNT>
1

> <PUBCHEM_ATOM_UDEF_STEREO_COUNT>
1

> <PUBCHEM_BOND_DEF_STEREO_COUNT>
0

> <PUBCHEM_BOND_UDEF_STEREO_COUNT>
0

> <PUBCHEM_ISOTOPIC_ATOM_COUNT>
0

> <PUBCHEM_COMPONENT_COUNT>
1

> <PUBCHEM_CACTVS_TAUTO_COUNT>
-1

> <PUBCHEM_COORDINATE_TYPE>
1
5
255

> <PUBCHEM_BONDANNOTATIONS>
23  4  3
25  5  6

$$$$
