 
  -OEChem-10192103432D

 59 64  0     1  0  0  0  0  0999 V2000
    3.0000    6.3306    0.0000 O   0  0  0  0  0  0  0  0  0  0  0  0
    4.0000   -6.3306    0.0000 O   0  0  0  0  0  0  0  0  0  0  0  0
    4.3660    0.5000    0.0000 O   0  0  0  0  0  0  0  0  0  0  0  0
    2.6340    0.5000    0.0000 O   0  0  0  0  0  0  0  0  0  0  0  0
    2.6340   -0.5000    0.0000 O   0  0  0  0  0  0  0  0  0  0  0  0
    4.3660   -0.5000    0.0000 O   0  0  0  0  0  0  0  0  0  0  0  0
    3.5000    5.4641    0.0000 C   0  0  3  0  0  0  0  0  0  0  0  0
    3.5000   -5.4641    0.0000 C   0  0  3  0  0  0  0  0  0  0  0  0
    2.5000    5.4641    0.0000 C   0  0  3  0  0  0  0  0  0  0  0  0
    4.5000   -5.4641    0.0000 C   0  0  3  0  0  0  0  0  0  0  0  0
    3.5000    3.7320    0.0000 C   0  0  3  0  0  0  0  0  0  0  0  0
    3.5000   -3.7320    0.0000 C   0  0  3  0  0  0  0  0  0  0  0  0
    4.0000    4.5981    0.0000 C   0  0  0  0  0  0  0  0  0  0  0  0
    3.0000   -4.5981    0.0000 C   0  0  0  0  0  0  0  0  0  0  0  0
    2.0000    4.5981    0.0000 C   0  0  0  0  0  0  0  0  0  0  0  0
    5.0000   -4.5981    0.0000 C   0  0  0  0  0  0  0  0  0  0  0  0
    2.5000    3.7320    0.0000 C   0  0  0  0  0  0  0  0  0  0  0  0
    4.5000   -3.7320    0.0000 C   0  0  0  0  0  0  0  0  0  0  0  0
    4.0000    2.8660    0.0000 C   0  0  0  0  0  0  0  0  0  0  0  0
    3.0000   -2.8660    0.0000 C   0  0  0  0  0  0  0  0  0  0  0  0
    3.5000    2.0000    0.0000 C   0  0  0  0  0  0  0  0  0  0  0  0
    3.5000   -2.0000    0.0000 C   0  0  0  0  0  0  0  0  0  0  0  0
    4.3660    1.5000    0.0000 C   0  0  0  0  0  0  0  0  0  0  0  0
    2.6340    1.5000    0.0000 C   0  0  0  0  0  0  0  0  0  0  0  0
    2.6340   -1.5000    0.0000 C   0  0  0  0  0  0  0  0  0  0  0  0
    4.3660   -1.5000    0.0000 C   0  0  0  0  0  0  0  0  0  0  0  0
    3.5000    0.0000    0.0000 C   0  0  0  0  0  0  0  0  0  0  0  0
    4.0370    5.7740    0.0000 H   0  0  0  0  0  0  0  0  0  0  0  0
    2.9630   -5.7740    0.0000 H   0  0  0  0  0  0  0  0  0  0  0  0
    1.9630    5.7740    0.0000 H   0  0  0  0  0  0  0  0  0  0  0  0
    5.0370   -5.7740    0.0000 H   0  0  0  0  0  0  0  0  0  0  0  0
    4.1200    3.7320    0.0000 H   0  0  0  0  0  0  0  0  0  0  0  0
    2.8800   -3.7320    0.0000 H   0  0  0  0  0  0  0  0  0  0  0  0
    4.4750    4.1996    0.0000 H   0  0  0  0  0  0  0  0  0  0  0  0
    4.4750    4.9966    0.0000 H   0  0  0  0  0  0  0  0  0  0  0  0
    2.5250   -4.1996    0.0000 H   0  0  0  0  0  0  0  0  0  0  0  0
    2.5250   -4.9966    0.0000 H   0  0  0  0  0  0  0  0  0  0  0  0
    1.5250    4.9966    0.0000 H   0  0  0  0  0  0  0  0  0  0  0  0
    1.5250    4.1996    0.0000 H   0  0  0  0  0  0  0  0  0  0  0  0
    5.4750   -4.9966    0.0000 H   0  0  0  0  0  0  0  0  0  0  0  0
    5.4750   -4.1996    0.0000 H   0  0  0  0  0  0  0  0  0  0  0  0
    1.9174    3.5200    0.0000 H   0  0  0  0  0  0  0  0  0  0  0  0
    2.6077    3.1215    0.0000 H   0  0  0  0  0  0  0  0  0  0  0  0
    5.0826   -3.5200    0.0000 H   0  0  0  0  0  0  0  0  0  0  0  0
    4.3923   -3.1215    0.0000 H   0  0  0  0  0  0  0  0  0  0  0  0
    4.4750    2.4675    0.0000 H   0  0  0  0  0  0  0  0  0  0  0  0
    4.4750    3.2646    0.0000 H   0  0  0  0  0  0  0  0  0  0  0  0
    2.5250   -2.4675    0.0000 H   0  0  0  0  0  0  0  0  0  0  0  0
    2.5250   -3.2646    0.0000 H   0  0  0  0  0  0  0  0  0  0  0  0
    3.1900    2.5369    0.0000 H   0  0  0  0  0  0  0  0  0  0  0  0
    3.8100   -2.5369    0.0000 H   0  0  0  0  0  0  0  0  0  0  0  0
    4.9766    1.3923    0.0000 H   0  0  0  0  0  0  0  0  0  0  0  0
    4.5781    2.0826    0.0000 H   0  0  0  0  0  0  0  0  0  0  0  0
    2.4219    2.0826    0.0000 H   0  0  0  0  0  0  0  0  0  0  0  0
    2.0234    1.3923    0.0000 H   0  0  0  0  0  0  0  0  0  0  0  0
    2.0234   -1.3923    0.0000 H   0  0  0  0  0  0  0  0  0  0  0  0
    2.4219   -2.0826    0.0000 H   0  0  0  0  0  0  0  0  0  0  0  0
    4.5781   -2.0826    0.0000 H   0  0  0  0  0  0  0  0  0  0  0  0
    4.9766   -1.3923    0.0000 H   0  0  0  0  0  0  0  0  0  0  0  0
  1  7  1  0  0  0  0
  1  9  1  0  0  0  0
  2  8  1  0  0  0  0
  2 10  1  0  0  0  0
  3 23  1  0  0  0  0
  3 27  1  0  0  0  0
  4 24  1  0  0  0  0
  4 27  1  0  0  0  0
  5 25  1  0  0  0  0
  5 27  1  0  0  0  0
  6 26  1  0  0  0  0
  6 27  1  0  0  0  0
  7  9  1  0  0  0  0
  7 13  1  0  0  0  0
  7 28  1  0  0  0  0
  8 10  1  0  0  0  0
  8 14  1  0  0  0  0
  8 29  1  0  0  0  0
  9 15  1  0  0  0  0
  9 30  1  0  0  0  0
 10 16  1  0  0  0  0
 10 31  1  0  0  0  0
 11 13  1  0  0  0  0
 11 17  1  0  0  0  0
 11 19  1  0  0  0  0
 11 32  1  0  0  0  0
 12 14  1  0  0  0  0
 12 18  1  0  0  0  0
 12 20  1  0  0  0  0
 12 33  1  0  0  0  0
 13 34  1  0  0  0  0
 13 35  1  0  0  0  0
 14 36  1  0  0  0  0
 14 37  1  0  0  0  0
 15 17  1  0  0  0  0
 15 38  1  0  0  0  0
 15 39  1  0  0  0  0
 16 18  1  0  0  0  0
 16 40  1  0  0  0  0
 16 41  1  0  0  0  0
 17 42  1  0  0  0  0
 17 43  1  0  0  0  0
 18 44  1  0  0  0  0
 18 45  1  0  0  0  0
 19 21  1  0  0  0  0
 19 46  1  0  0  0  0
 19 47  1  0  0  0  0
 20 22  1  0  0  0  0
 20 48  1  0  0  0  0
 20 49  1  0  0  0  0
 21 23  1  0  0  0  0
 21 24  1  0  0  0  0
 21 50  1  0  0  0  0
 22 25  1  0  0  0  0
 22 26  1  0  0  0  0
 22 51  1  0  0  0  0
 23 52  1  0  0  0  0
 23 53  1  0  0  0  0
 24 54  1  0  0  0  0
 24 55  1  0  0  0  0
 25 56  1  0  0  0  0
 25 57  1  0  0  0  0
 26 58  1  0  0  0  0
 26 59  1  0  0  0  0
M  END
> <PUBCHEM_COMPOUND_CID>
22634722

> <PUBCHEM_COMPOUND_CANONICALIZED>
1

> <PUBCHEM_CACTVS_COMPLEXITY>
487

> <PUBCHEM_CACTVS_HBOND_ACCEPTOR>
6

> <PUBCHEM_CACTVS_HBOND_DONOR>
0

> <PUBCHEM_CACTVS_ROTATABLE_BOND>
4

> <PUBCHEM_CACTVS_SUBSKEYS>
AAADcfB4OAAAAAAAAAAAAAAAEiQAAAAAAAA0aIEABIkAAAAAAAAAGgAAAAAADRSggAIACAAABAAAAAAAAAAAAAAAAAAAAAAAAAAQAAIAAAAiAAAFAAAEAAGAwPAOAAAAAAAAAABAAAIAAAAAAAAAAAAAAA==

> <PUBCHEM_IUPAC_OPENEYE_NAME>
3,9-bis(7-oxabicyclo[4.1.0]heptan-3-ylmethyl)-1,5,7,11-tetraoxaspiro[5.5]undecane

> <PUBCHEM_IUPAC_CAS_NAME>
3,9-bis(7-oxabicyclo[4.1.0]heptan-3-ylmethyl)-1,5,7,11-tetraoxaspiro[5.5]undecane

> <PUBCHEM_IUPAC_NAME_MARKUP>
3,9-bis(7-oxabicyclo[4.1.0]heptan-3-ylmethyl)-1,5,7,11-tetraoxaspiro[5.5]undecane

> <PUBCHEM_IUPAC_NAME>
3,9-bis(7-oxabicyclo[4.1.0]heptan-3-ylmethyl)-1,5,7,11-tetraoxaspiro[5.5]undecane

> <PUBCHEM_IUPAC_SYSTEMATIC_NAME>
3,9-bis(7-oxabicyclo[4.1.0]heptan-3-ylmethyl)-1,5,7,11-tetraoxaspiro[5.5]undecane

> <PUBCHEM_IUPAC_TRADITIONAL_NAME>
3,9-bis(7-oxabicyclo[4.1.0]heptan-3-ylmethyl)-1,5,7,11-tetraoxaspiro[5.5]undecane

> <PUBCHEM_IUPAC_INCHI>
InChI=1S/C21H32O6/c1-3-17-19(26-17)7-13(1)5-15-9-22-21(23-10-15)24-11-16(12-25-21)6-14-2-4-18-20(8-14)27-18/h13-20H,1-12H2

> <PUBCHEM_IUPAC_INCHIKEY>
DOSUQXLKOJNLOT-UHFFFAOYSA-N

> <PUBCHEM_XLOGP3_AA>
2.3

> <PUBCHEM_EXACT_MASS>
380.21988874

> <PUBCHEM_MOLECULAR_FORMULA>
C21H32O6

> <PUBCHEM_MOLECULAR_WEIGHT>
380.5

> <PUBCHEM_OPENEYE_CAN_SMILES>
C1CC2C(O2)CC1CC3COC4(OC3)OCC(CO4)CC5CCC6C(C5)O6

> <PUBCHEM_OPENEYE_ISO_SMILES>
C1CC2C(O2)CC1CC3COC4(OC3)OCC(CO4)CC5CCC6C(C5)O6

> <PUBCHEM_CACTVS_TPSA>
62

> <PUBCHEM_MONOISOTOPIC_WEIGHT>
380.21988874

> <PUBCHEM_TOTAL_CHARGE>
0

> <PUBCHEM_HEAVY_ATOM_COUNT>
27

> <PUBCHEM_ATOM_DEF_STEREO_COUNT>
0

> <PUBCHEM_ATOM_UDEF_STEREO_COUNT>
6

> <PUBCHEM_BOND_DEF_STEREO_COUNT>
0

> <PUBCHEM_BOND_UDEF_STEREO_COUNT>
0

> <PUBCHEM_ISOTOPIC_ATOM_COUNT>
0

> <PUBCHEM_COMPONENT_COUNT>
1

> <PUBCHEM_CACTVS_TAUTO_COUNT>
-1

> <PUBCHEM_COORDINATE_TYPE>
1
5
255

> <PUBCHEM_BONDANNOTATIONS>
10  16  3
11  19  3
12  20  3
7  13  3
8  14  3
9  15  3

$$$$
