 
  -OEChem-10192103442D

 61 62  0     1  0  0  0  0  0999 V2000
    5.4641    0.4400    0.0000 O   0  0  0  0  0  0  0  0  0  0  0  0
    7.1962    0.4400    0.0000 O   0  0  0  0  0  0  0  0  0  0  0  0
    5.4641   -2.5600    0.0000 O   0  0  0  0  0  0  0  0  0  0  0  0
    7.1962   -1.5600    0.0000 O   0  0  0  0  0  0  0  0  0  0  0  0
    3.7320   -1.5600    0.0000 O   0  0  0  0  0  0  0  0  0  0  0  0
    7.1962    3.4400    0.0000 O   0  0  0  0  0  0  0  0  0  0  0  0
    8.9282    1.4400    0.0000 O   0  0  0  0  0  0  0  0  0  0  0  0
    5.4641    1.4400    0.0000 O   0  0  0  0  0  0  0  0  0  0  0  0
    3.7320    1.4400    0.0000 O   0  0  0  0  0  0  0  0  0  0  0  0
    8.9282    3.4400    0.0000 O   0  0  0  0  0  0  0  0  0  0  0  0
    3.7320   -2.5600    0.0000 O   0  0  0  0  0  0  0  0  0  0  0  0
    8.0622   -0.0600    0.0000 O   0  0  0  0  0  0  0  0  0  0  0  0
    2.8660   -0.0600    0.0000 O   0  0  0  0  0  0  0  0  0  0  0  0
    2.0000    1.4400    0.0000 O   0  0  0  0  0  0  0  0  0  0  0  0
    5.4641   -1.5600    0.0000 C   0  0  2  0  0  0  0  0  0  0  0  0
    6.3301   -1.0600    0.0000 C   0  0  2  0  0  0  0  0  0  0  0  0
    4.5981   -1.0600    0.0000 C   0  0  1  0  0  0  0  0  0  0  0  0
    6.3301   -0.0600    0.0000 C   0  0  1  0  0  0  0  0  0  0  0  0
    4.5981   -0.0600    0.0000 C   0  0  1  0  0  0  0  0  0  0  0  0
    7.1962    1.4400    0.0000 C   0  0  2  0  0  0  0  0  0  0  0  0
    8.0622    1.9400    0.0000 C   0  0  2  0  0  0  0  0  0  0  0  0
    6.3301    1.9400    0.0000 C   0  0  2  0  0  0  0  0  0  0  0  0
    3.7320    0.4400    0.0000 C   0  0  0  0  0  0  0  0  0  0  0  0
    8.0622    2.9400    0.0000 C   0  0  1  0  0  0  0  0  0  0  0  0
    6.3301    2.9400    0.0000 C   0  0  0  0  0  0  0  0  0  0  0  0
    4.5981   -3.0600    0.0000 C   0  0  0  0  0  0  0  0  0  0  0  0
    8.0622   -1.0600    0.0000 C   0  0  0  0  0  0  0  0  0  0  0  0
    2.8660   -1.0600    0.0000 C   0  0  0  0  0  0  0  0  0  0  0  0
    4.5981   -4.0600    0.0000 C   0  0  0  0  0  0  0  0  0  0  0  0
    8.9282   -1.5600    0.0000 C   0  0  0  0  0  0  0  0  0  0  0  0
    2.0000   -1.5600    0.0000 C   0  0  0  0  0  0  0  0  0  0  0  0
    2.8660    1.9400    0.0000 C   0  0  0  0  0  0  0  0  0  0  0  0
    2.8660    2.9400    0.0000 C   0  0  0  0  0  0  0  0  0  0  0  0
    4.9272   -1.8700    0.0000 H   0  0  0  0  0  0  0  0  0  0  0  0
    6.3301   -1.6800    0.0000 H   0  0  0  0  0  0  0  0  0  0  0  0
    4.5981   -1.6800    0.0000 H   0  0  0  0  0  0  0  0  0  0  0  0
    6.3301    0.5600    0.0000 H   0  0  0  0  0  0  0  0  0  0  0  0
    4.5981    0.5600    0.0000 H   0  0  0  0  0  0  0  0  0  0  0  0
    6.6592    1.1300    0.0000 H   0  0  0  0  0  0  0  0  0  0  0  0
    8.0622    1.3200    0.0000 H   0  0  0  0  0  0  0  0  0  0  0  0
    5.7932    2.2500    0.0000 H   0  0  0  0  0  0  0  0  0  0  0  0
    3.1215    0.5477    0.0000 H   0  0  0  0  0  0  0  0  0  0  0  0
    3.5200   -0.1426    0.0000 H   0  0  0  0  0  0  0  0  0  0  0  0
    8.0622    3.5600    0.0000 H   0  0  0  0  0  0  0  0  0  0  0  0
    6.1181    3.5226    0.0000 H   0  0  0  0  0  0  0  0  0  0  0  0
    5.7196    2.8323    0.0000 H   0  0  0  0  0  0  0  0  0  0  0  0
    9.4651    1.7500    0.0000 H   0  0  0  0  0  0  0  0  0  0  0  0
    4.9272    1.7500    0.0000 H   0  0  0  0  0  0  0  0  0  0  0  0
    8.9282    4.0600    0.0000 H   0  0  0  0  0  0  0  0  0  0  0  0
    3.9781   -4.0600    0.0000 H   0  0  0  0  0  0  0  0  0  0  0  0
    4.5981   -4.6800    0.0000 H   0  0  0  0  0  0  0  0  0  0  0  0
    5.2181   -4.0600    0.0000 H   0  0  0  0  0  0  0  0  0  0  0  0
    8.6182   -2.0969    0.0000 H   0  0  0  0  0  0  0  0  0  0  0  0
    9.4651   -1.8700    0.0000 H   0  0  0  0  0  0  0  0  0  0  0  0
    9.2382   -1.0231    0.0000 H   0  0  0  0  0  0  0  0  0  0  0  0
    1.6900   -1.0231    0.0000 H   0  0  0  0  0  0  0  0  0  0  0  0
    1.4631   -1.8700    0.0000 H   0  0  0  0  0  0  0  0  0  0  0  0
    2.3100   -2.0969    0.0000 H   0  0  0  0  0  0  0  0  0  0  0  0
    3.4860    2.9400    0.0000 H   0  0  0  0  0  0  0  0  0  0  0  0
    2.8660    3.5600    0.0000 H   0  0  0  0  0  0  0  0  0  0  0  0
    2.2460    2.9400    0.0000 H   0  0  0  0  0  0  0  0  0  0  0  0
  1 18  1  0  0  0  0
  1 19  1  0  0  0  0
 18  2  1  1  0  0  0
 20  2  1  1  0  0  0
 15  3  1  1  0  0  0
  3 26  1  0  0  0  0
 16  4  1  6  0  0  0
  4 27  1  0  0  0  0
 17  5  1  6  0  0  0
  5 28  1  0  0  0  0
  6 24  1  0  0  0  0
  6 25  1  0  0  0  0
 21  7  1  6  0  0  0
  7 47  1  0  0  0  0
 22  8  1  1  0  0  0
  8 48  1  0  0  0  0
  9 23  1  0  0  0  0
  9 32  1  0  0  0  0
 24 10  1  1  0  0  0
 10 49  1  0  0  0  0
 11 26  2  0  0  0  0
 12 27  2  0  0  0  0
 13 28  2  0  0  0  0
 14 32  2  0  0  0  0
 15 16  1  0  0  0  0
 15 17  1  0  0  0  0
 15 34  1  0  0  0  0
 16 18  1  0  0  0  0
 16 35  1  0  0  0  0
 17 19  1  0  0  0  0
 17 36  1  0  0  0  0
 18 37  1  0  0  0  0
 19 23  1  1  0  0  0
 19 38  1  0  0  0  0
 20 21  1  0  0  0  0
 20 22  1  0  0  0  0
 20 39  1  0  0  0  0
 21 24  1  0  0  0  0
 21 40  1  0  0  0  0
 22 25  1  0  0  0  0
 22 41  1  0  0  0  0
 23 42  1  0  0  0  0
 23 43  1  0  0  0  0
 24 44  1  0  0  0  0
 25 45  1  0  0  0  0
 25 46  1  0  0  0  0
 26 29  1  0  0  0  0
 27 30  1  0  0  0  0
 28 31  1  0  0  0  0
 29 50  1  0  0  0  0
 29 51  1  0  0  0  0
 29 52  1  0  0  0  0
 30 53  1  0  0  0  0
 30 54  1  0  0  0  0
 30 55  1  0  0  0  0
 31 56  1  0  0  0  0
 31 57  1  0  0  0  0
 31 58  1  0  0  0  0
 32 33  1  0  0  0  0
 33 59  1  0  0  0  0
 33 60  1  0  0  0  0
 33 61  1  0  0  0  0
M  END
> <PUBCHEM_COMPOUND_CID>
91857796

> <PUBCHEM_COMPOUND_CANONICALIZED>
1

> <PUBCHEM_CACTVS_COMPLEXITY>
725

> <PUBCHEM_CACTVS_HBOND_ACCEPTOR>
14

> <PUBCHEM_CACTVS_HBOND_DONOR>
3

> <PUBCHEM_CACTVS_ROTATABLE_BOND>
11

> <PUBCHEM_CACTVS_SUBSKEYS>
AAADceB4PAAAAAAAAAAAAAAAAAAAAAAAAAAkSAAAAAAAAAAAAAAAGgAACAAACBSwgAMCCAAABgAIAACQCAAAAAAAAAAAAAAAAAAREAIAAAAiQAAFAAAHAAHAYAwAAAAAAAAAAAAAAAAAAAAAAAAAAAAAAA==

> <PUBCHEM_IUPAC_OPENEYE_NAME>
[(2R,3R,4S,5R,6S)-3,4,5-triacetoxy-6-[(2R,3R,4S,5S)-2,3,5-trihydroxytetrahydropyran-4-yl]oxy-tetrahydropyran-2-yl]methyl acetate

> <PUBCHEM_IUPAC_CAS_NAME>
acetic acid [(2R,3R,4S,5R,6S)-3,4,5-triacetyloxy-6-[[(2R,3R,4S,5S)-2,3,5-trihydroxy-4-oxanyl]oxy]-2-oxanyl]methyl ester

> <PUBCHEM_IUPAC_NAME_MARKUP>
[(2<I>R</I>,3<I>R</I>,4<I>S</I>,5<I>R</I>,6<I>S</I>)-3,4,5-triacetyloxy-6-[(2<I>R</I>,3<I>R</I>,4<I>S</I>,5<I>S</I>)-2,3,5-trihydroxyoxan-4-yl]oxyoxan-2-yl]methyl acetate

> <PUBCHEM_IUPAC_NAME>
[(2R,3R,4S,5R,6S)-3,4,5-triacetyloxy-6-[(2R,3R,4S,5S)-2,3,5-trihydroxyoxan-4-yl]oxyoxan-2-yl]methyl acetate

> <PUBCHEM_IUPAC_SYSTEMATIC_NAME>
[(2R,3R,4S,5R,6S)-3,4,5-triacetyloxy-6-[(2R,3R,4S,5S)-2,3,5-tris(oxidanyl)oxan-4-yl]oxy-oxan-2-yl]methyl ethanoate

> <PUBCHEM_IUPAC_TRADITIONAL_NAME>
acetic acid [(2R,3R,4S,5R,6S)-3,4,5-triacetoxy-6-[(2R,3R,4S,5S)-2,3,5-trihydroxytetrahydropyran-4-yl]oxy-tetrahydropyran-2-yl]methyl ester

> <PUBCHEM_IUPAC_INCHI>
InChI=1S/C19H28O14/c1-7(20)27-6-12-15(29-8(2)21)16(30-9(3)22)17(31-10(4)23)19(32-12)33-14-11(24)5-28-18(26)13(14)25/h11-19,24-26H,5-6H2,1-4H3/t11-,12+,13+,14-,15+,16-,17+,18+,19-/m0/s1

> <PUBCHEM_IUPAC_INCHIKEY>
ZEUWVQAJPRGDQS-VPAKQUHVSA-N

> <PUBCHEM_XLOGP3_AA>
-2.4

> <PUBCHEM_EXACT_MASS>
480.14790556

> <PUBCHEM_MOLECULAR_FORMULA>
C19H28O14

> <PUBCHEM_MOLECULAR_WEIGHT>
480.4

> <PUBCHEM_OPENEYE_CAN_SMILES>
CC(=O)OCC1C(C(C(C(O1)OC2C(COC(C2O)O)O)OC(=O)C)OC(=O)C)OC(=O)C

> <PUBCHEM_OPENEYE_ISO_SMILES>
CC(=O)OC[C@@H]1[C@H]([C@@H]([C@H]([C@@H](O1)O[C@H]2[C@H](CO[C@H]([C@@H]2O)O)O)OC(=O)C)OC(=O)C)OC(=O)C

> <PUBCHEM_CACTVS_TPSA>
194

> <PUBCHEM_MONOISOTOPIC_WEIGHT>
480.14790556

> <PUBCHEM_TOTAL_CHARGE>
0

> <PUBCHEM_HEAVY_ATOM_COUNT>
33

> <PUBCHEM_ATOM_DEF_STEREO_COUNT>
9

> <PUBCHEM_ATOM_UDEF_STEREO_COUNT>
0

> <PUBCHEM_BOND_DEF_STEREO_COUNT>
0

> <PUBCHEM_BOND_UDEF_STEREO_COUNT>
0

> <PUBCHEM_ISOTOPIC_ATOM_COUNT>
0

> <PUBCHEM_COMPONENT_COUNT>
1

> <PUBCHEM_CACTVS_TAUTO_COUNT>
-1

> <PUBCHEM_COORDINATE_TYPE>
1
5
255

> <PUBCHEM_BONDANNOTATIONS>
24  10  5
19  23  5
18  2  5
20  2  5
15  3  5
16  4  6
17  5  6
21  7  6
22  8  5

$$$$
