 
  -OEChem-10192103472D

 27 26  0     1  0  0  0  0  0999 V2000
    5.1350   -1.3450    0.0000 O   0  0  0  0  0  0  0  0  0  0  0  0
    6.0010    1.1550    0.0000 O   0  0  0  0  0  0  0  0  0  0  0  0
    4.2690    1.1550    0.0000 O   0  0  0  0  0  0  0  0  0  0  0  0
    6.8671   -1.3450    0.0000 O   0  0  0  0  0  0  0  0  0  0  0  0
    2.5369    0.1550    0.0000 O   0  0  0  0  0  0  0  0  0  0  0  0
    8.5991   -0.3450    0.0000 O   0  0  0  0  0  0  0  0  0  0  0  0
    3.4030   -1.3450    0.0000 O   0  0  0  0  0  0  0  0  0  0  0  0
    7.7331    1.1550    0.0000 O   0  0  0  0  0  0  0  0  0  0  0  0
    5.1350   -0.3450    0.0000 C   0  0  1  0  0  0  0  0  0  0  0  0
    6.0010    0.1550    0.0000 C   0  0  1  0  0  0  0  0  0  0  0  0
    4.2690    0.1550    0.0000 C   0  0  2  0  0  0  0  0  0  0  0  0
    6.8671   -0.3450    0.0000 C   0  0  1  0  0  0  0  0  0  0  0  0
    3.4030   -0.3450    0.0000 C   0  0  0  0  0  0  0  0  0  0  0  0
    7.7331    0.1550    0.0000 C   0  0  0  0  0  0  0  0  0  0  0  0
    3.4030    1.6550    0.0000 C   0  0  0  0  0  0  0  0  0  0  0  0
    5.6720   -0.6550    0.0000 H   0  0  0  0  0  0  0  0  0  0  0  0
    6.5380    0.4650    0.0000 H   0  0  0  0  0  0  0  0  0  0  0  0
    4.8059    0.4650    0.0000 H   0  0  0  0  0  0  0  0  0  0  0  0
    6.3301   -0.6550    0.0000 H   0  0  0  0  0  0  0  0  0  0  0  0
    4.5981   -1.6550    0.0000 H   0  0  0  0  0  0  0  0  0  0  0  0
    6.5380    1.4650    0.0000 H   0  0  0  0  0  0  0  0  0  0  0  0
    7.4040   -1.6550    0.0000 H   0  0  0  0  0  0  0  0  0  0  0  0
    3.7130    2.1919    0.0000 H   0  0  0  0  0  0  0  0  0  0  0  0
    2.8660    1.9650    0.0000 H   0  0  0  0  0  0  0  0  0  0  0  0
    3.0930    1.1181    0.0000 H   0  0  0  0  0  0  0  0  0  0  0  0
    2.0000   -0.1550    0.0000 H   0  0  0  0  0  0  0  0  0  0  0  0
    9.1360   -0.0350    0.0000 H   0  0  0  0  0  0  0  0  0  0  0  0
  9  1  1  6  0  0  0
  1 20  1  0  0  0  0
 10  2  1  6  0  0  0
  2 21  1  0  0  0  0
 11  3  1  6  0  0  0
  3 15  1  0  0  0  0
 12  4  1  1  0  0  0
  4 22  1  0  0  0  0
  5 13  1  0  0  0  0
  5 26  1  0  0  0  0
  6 14  1  0  0  0  0
  6 27  1  0  0  0  0
  7 13  2  0  0  0  0
  8 14  2  0  0  0  0
  9 10  1  0  0  0  0
  9 11  1  0  0  0  0
  9 16  1  0  0  0  0
 10 12  1  0  0  0  0
 10 17  1  0  0  0  0
 11 13  1  0  0  0  0
 11 18  1  0  0  0  0
 12 14  1  0  0  0  0
 12 19  1  0  0  0  0
 15 23  1  0  0  0  0
 15 24  1  0  0  0  0
 15 25  1  0  0  0  0
M  END
> <PUBCHEM_COMPOUND_CID>
88789836

> <PUBCHEM_COMPOUND_CANONICALIZED>
1

> <PUBCHEM_CACTVS_COMPLEXITY>
239

> <PUBCHEM_CACTVS_HBOND_ACCEPTOR>
8

> <PUBCHEM_CACTVS_HBOND_DONOR>
5

> <PUBCHEM_CACTVS_ROTATABLE_BOND>
6

> <PUBCHEM_CACTVS_SUBSKEYS>
AAADccBgPAAAAAAAAAAAAAAAAAAAAAAAAAAAAAAAAAAAAAAAAAAAGgAACAAACBSggAICCAAABgAIAACQCAIAAAAAAAAAAAFAAAABEBYAAAQAQAAFIAADAAHKbAxAAAAAAAAAAAAAAAAAAAAAAAAAAAAAAA==

> <PUBCHEM_IUPAC_OPENEYE_NAME>
(2S,3S,4S,5R)-2,3,4-trihydroxy-5-methoxy-hexanedioic acid

> <PUBCHEM_IUPAC_CAS_NAME>
(2S,3S,4S,5R)-2,3,4-trihydroxy-5-methoxyhexanedioic acid

> <PUBCHEM_IUPAC_NAME_MARKUP>
(2<I>S</I>,3<I>S</I>,4<I>S</I>,5<I>R</I>)-2,3,4-trihydroxy-5-methoxyhexanedioic acid

> <PUBCHEM_IUPAC_NAME>
(2S,3S,4S,5R)-2,3,4-trihydroxy-5-methoxyhexanedioic acid

> <PUBCHEM_IUPAC_SYSTEMATIC_NAME>
(2R,3S,4S,5S)-2-methoxy-3,4,5-tris(oxidanyl)hexanedioic acid

> <PUBCHEM_IUPAC_TRADITIONAL_NAME>
(2S,3S,4S,5R)-2,3,4-trihydroxy-5-methoxy-adipic acid

> <PUBCHEM_IUPAC_INCHI>
InChI=1S/C7H12O8/c1-15-5(7(13)14)3(9)2(8)4(10)6(11)12/h2-5,8-10H,1H3,(H,11,12)(H,13,14)/t2-,3-,4-,5+/m0/s1

> <PUBCHEM_IUPAC_INCHIKEY>
QNGDXIOIDOHPLL-NEEWWZBLSA-N

> <PUBCHEM_XLOGP3_AA>
-2.6

> <PUBCHEM_EXACT_MASS>
224.05321734

> <PUBCHEM_MOLECULAR_FORMULA>
C7H12O8

> <PUBCHEM_MOLECULAR_WEIGHT>
224.17

> <PUBCHEM_OPENEYE_CAN_SMILES>
COC(C(C(C(C(=O)O)O)O)O)C(=O)O

> <PUBCHEM_OPENEYE_ISO_SMILES>
CO[C@H]([C@H]([C@@H]([C@@H](C(=O)O)O)O)O)C(=O)O

> <PUBCHEM_CACTVS_TPSA>
145

> <PUBCHEM_MONOISOTOPIC_WEIGHT>
224.05321734

> <PUBCHEM_TOTAL_CHARGE>
0

> <PUBCHEM_HEAVY_ATOM_COUNT>
15

> <PUBCHEM_ATOM_DEF_STEREO_COUNT>
4

> <PUBCHEM_ATOM_UDEF_STEREO_COUNT>
0

> <PUBCHEM_BOND_DEF_STEREO_COUNT>
0

> <PUBCHEM_BOND_UDEF_STEREO_COUNT>
0

> <PUBCHEM_ISOTOPIC_ATOM_COUNT>
0

> <PUBCHEM_COMPONENT_COUNT>
1

> <PUBCHEM_CACTVS_TAUTO_COUNT>
-1

> <PUBCHEM_COORDINATE_TYPE>
1
5
255

> <PUBCHEM_BONDANNOTATIONS>
9  1  6
10  2  6
11  3  6
12  4  5

$$$$
