 
  -OEChem-10192104202D

 98103  0     1  0  0  0  0  0999 V2000
    8.9765    0.4775    0.0000 O   0  0  0  0  0  0  0  0  0  0  0  0
    6.0580   -0.4708    0.0000 O   0  0  0  0  0  0  0  0  0  0  0  0
    8.1797    5.0625    0.0000 O   0  0  0  0  0  0  0  0  0  0  0  0
    6.8671   -5.0586    0.0000 O   0  0  0  0  0  0  0  0  0  0  0  0
    9.9100    4.0595    0.0000 O   0  0  0  0  0  0  0  0  0  0  0  0
    5.1350   -4.0586    0.0000 O   0  0  0  0  0  0  0  0  0  0  0  0
    6.4460    4.0655    0.0000 O   0  0  0  0  0  0  0  0  0  0  0  0
    8.5991   -4.0586    0.0000 O   0  0  0  0  0  0  0  0  0  0  0  0
    9.9118    5.0595    0.0000 O   0  0  0  0  0  0  0  0  0  0  0  0
    5.1350   -5.0586    0.0000 O   0  0  0  0  0  0  0  0  0  0  0  0
    8.1832    7.0625    0.0000 O   0  0  0  0  0  0  0  0  0  0  0  0
    6.8671   -7.0586    0.0000 O   0  0  0  0  0  0  0  0  0  0  0  0
    9.9170    8.0595    0.0000 O   0  0  0  0  0  0  0  0  0  0  0  0
    5.1350   -8.0586    0.0000 O   0  0  0  0  0  0  0  0  0  0  0  0
   11.6473    7.0565    0.0000 O   0  0  0  0  0  0  0  0  0  0  0  0
    3.4030   -7.0586    0.0000 O   0  0  0  0  0  0  0  0  0  0  0  0
   12.5107    5.5550    0.0000 O   0  0  0  0  0  0  0  0  0  0  0  0
    2.5369   -5.5586    0.0000 O   0  0  0  0  0  0  0  0  0  0  0  0
    7.3671    0.4803    0.0000 C   0  0  3  0  0  0  0  0  0  0  0  0
    7.6761   -0.4708    0.0000 C   0  0  3  0  0  0  0  0  0  0  0  0
    8.1728    1.0625    0.0000 C   0  0  3  0  0  0  0  0  0  0  0  0
    6.8671   -1.0586    0.0000 C   0  0  3  0  0  0  0  0  0  0  0  0
    8.6702   -0.4682    0.0000 C   0  0  0  0  0  0  0  0  0  0  0  0
    6.3671    0.4803    0.0000 C   0  0  0  0  0  0  0  0  0  0  0  0
    8.1745    2.0625    0.0000 C   0  0  0  0  0  0  0  0  0  0  0  0
    6.8671   -2.0586    0.0000 C   0  0  0  0  0  0  0  0  0  0  0  0
    7.3094    2.5640    0.0000 C   0  0  0  0  0  0  0  0  0  0  0  0
    7.7331   -2.5586    0.0000 C   0  0  0  0  0  0  0  0  0  0  0  0
    9.0414    2.5610    0.0000 C   0  0  0  0  0  0  0  0  0  0  0  0
    6.0010   -2.5586    0.0000 C   0  0  0  0  0  0  0  0  0  0  0  0
    9.0432    3.5610    0.0000 C   0  0  0  0  0  0  0  0  0  0  0  0
    6.0010   -3.5586    0.0000 C   0  0  0  0  0  0  0  0  0  0  0  0
    7.3111    3.5640    0.0000 C   0  0  0  0  0  0  0  0  0  0  0  0
    7.7331   -3.5586    0.0000 C   0  0  0  0  0  0  0  0  0  0  0  0
    8.1780    4.0625    0.0000 C   0  0  0  0  0  0  0  0  0  0  0  0
    6.8671   -4.0586    0.0000 C   0  0  0  0  0  0  0  0  0  0  0  0
    9.0466    5.5610    0.0000 C   0  0  2  0  0  0  0  0  0  0  0  0
    6.0010   -5.5586    0.0000 C   0  0  2  0  0  0  0  0  0  0  0  0
    9.0483    6.5610    0.0000 C   0  0  1  0  0  0  0  0  0  0  0  0
    6.0010   -6.5586    0.0000 C   0  0  1  0  0  0  0  0  0  0  0  0
    9.9152    7.0595    0.0000 C   0  0  2  0  0  0  0  0  0  0  0  0
    5.1350   -7.0586    0.0000 C   0  0  2  0  0  0  0  0  0  0  0  0
   10.7804    6.5580    0.0000 C   0  0  1  0  0  0  0  0  0  0  0  0
    4.2690   -6.5586    0.0000 C   0  0  1  0  0  0  0  0  0  0  0  0
   10.7787    5.5580    0.0000 C   0  0  1  0  0  0  0  0  0  0  0  0
    4.2690   -5.5586    0.0000 C   0  0  1  0  0  0  0  0  0  0  0  0
   11.6438    5.0565    0.0000 C   0  0  0  0  0  0  0  0  0  0  0  0
    3.4030   -5.0586    0.0000 C   0  0  0  0  0  0  0  0  0  0  0  0
   10.7752    3.5580    0.0000 C   0  0  0  0  0  0  0  0  0  0  0  0
    4.2690   -3.5586    0.0000 C   0  0  0  0  0  0  0  0  0  0  0  0
    5.5791    3.5670    0.0000 C   0  0  0  0  0  0  0  0  0  0  0  0
    9.4651   -3.5586    0.0000 C   0  0  0  0  0  0  0  0  0  0  0  0
    7.1762    1.0702    0.0000 H   0  0  0  0  0  0  0  0  0  0  0  0
    7.8684   -1.0602    0.0000 H   0  0  0  0  0  0  0  0  0  0  0  0
    8.7256    1.3432    0.0000 H   0  0  0  0  0  0  0  0  0  0  0  0
    6.3146   -1.3400    0.0000 H   0  0  0  0  0  0  0  0  0  0  0  0
    8.6066   -1.0849    0.0000 H   0  0  0  0  0  0  0  0  0  0  0  0
    9.2768   -0.5962    0.0000 H   0  0  0  0  0  0  0  0  0  0  0  0
    6.4319    1.0969    0.0000 H   0  0  0  0  0  0  0  0  0  0  0  0
    5.7606    0.6092    0.0000 H   0  0  0  0  0  0  0  0  0  0  0  0
    6.7719    2.2549    0.0000 H   0  0  0  0  0  0  0  0  0  0  0  0
    8.2700   -2.2486    0.0000 H   0  0  0  0  0  0  0  0  0  0  0  0
    9.5778    2.2501    0.0000 H   0  0  0  0  0  0  0  0  0  0  0  0
    5.4641   -2.2486    0.0000 H   0  0  0  0  0  0  0  0  0  0  0  0
    8.5102    5.8719    0.0000 H   0  0  0  0  0  0  0  0  0  0  0  0
    6.0010   -4.9386    0.0000 H   0  0  0  0  0  0  0  0  0  0  0  0
    9.0494    7.1810    0.0000 H   0  0  0  0  0  0  0  0  0  0  0  0
    6.0010   -7.1786    0.0000 H   0  0  0  0  0  0  0  0  0  0  0  0
   10.4527    7.3686    0.0000 H   0  0  0  0  0  0  0  0  0  0  0  0
    4.5981   -7.3686    0.0000 H   0  0  0  0  0  0  0  0  0  0  0  0
   10.7815    7.1780    0.0000 H   0  0  0  0  0  0  0  0  0  0  0  0
    4.2690   -7.1786    0.0000 H   0  0  0  0  0  0  0  0  0  0  0  0
   10.7776    4.9380    0.0000 H   0  0  0  0  0  0  0  0  0  0  0  0
    4.2690   -4.9386    0.0000 H   0  0  0  0  0  0  0  0  0  0  0  0
   11.2445    4.5822    0.0000 H   0  0  0  0  0  0  0  0  0  0  0  0
   12.0415    4.5809    0.0000 H   0  0  0  0  0  0  0  0  0  0  0  0
    3.8015   -4.5836    0.0000 H   0  0  0  0  0  0  0  0  0  0  0  0
    3.0044   -4.5836    0.0000 H   0  0  0  0  0  0  0  0  0  0  0  0
   10.4643    3.0216    0.0000 H   0  0  0  0  0  0  0  0  0  0  0  0
   11.3116    3.2471    0.0000 H   0  0  0  0  0  0  0  0  0  0  0  0
   11.0861    4.0944    0.0000 H   0  0  0  0  0  0  0  0  0  0  0  0
    4.5790   -3.0216    0.0000 H   0  0  0  0  0  0  0  0  0  0  0  0
    3.7320   -3.2486    0.0000 H   0  0  0  0  0  0  0  0  0  0  0  0
    3.9590   -4.0955    0.0000 H   0  0  0  0  0  0  0  0  0  0  0  0
    5.2700    4.1045    0.0000 H   0  0  0  0  0  0  0  0  0  0  0  0
    5.0416    3.2579    0.0000 H   0  0  0  0  0  0  0  0  0  0  0  0
    5.8881    3.0295    0.0000 H   0  0  0  0  0  0  0  0  0  0  0  0
    9.7751   -4.0955    0.0000 H   0  0  0  0  0  0  0  0  0  0  0  0
   10.0021   -3.2486    0.0000 H   0  0  0  0  0  0  0  0  0  0  0  0
    9.1551   -3.0216    0.0000 H   0  0  0  0  0  0  0  0  0  0  0  0
    8.1843    7.6825    0.0000 H   0  0  0  0  0  0  0  0  0  0  0  0
    7.4040   -6.7486    0.0000 H   0  0  0  0  0  0  0  0  0  0  0  0
   10.4544    8.3686    0.0000 H   0  0  0  0  0  0  0  0  0  0  0  0
    5.6720   -8.3686    0.0000 H   0  0  0  0  0  0  0  0  0  0  0  0
   11.6484    7.6765    0.0000 H   0  0  0  0  0  0  0  0  0  0  0  0
    3.4030   -7.6786    0.0000 H   0  0  0  0  0  0  0  0  0  0  0  0
   13.0471    5.2441    0.0000 H   0  0  0  0  0  0  0  0  0  0  0  0
    2.0000   -5.2486    0.0000 H   0  0  0  0  0  0  0  0  0  0  0  0
  1 21  1  0  0  0  0
  1 23  1  0  0  0  0
  2 22  1  0  0  0  0
  2 24  1  0  0  0  0
  3 35  1  0  0  0  0
 37  3  1  1  0  0  0
  4 36  1  0  0  0  0
 38  4  1  1  0  0  0
  5 31  1  0  0  0  0
  5 49  1  0  0  0  0
  6 32  1  0  0  0  0
  6 50  1  0  0  0  0
  7 33  1  0  0  0  0
  7 51  1  0  0  0  0
  8 34  1  0  0  0  0
  8 52  1  0  0  0  0
  9 37  1  0  0  0  0
  9 45  1  0  0  0  0
 10 38  1  0  0  0  0
 10 46  1  0  0  0  0
 39 11  1  6  0  0  0
 11 91  1  0  0  0  0
 40 12  1  6  0  0  0
 12 92  1  0  0  0  0
 41 13  1  1  0  0  0
 13 93  1  0  0  0  0
 42 14  1  1  0  0  0
 14 94  1  0  0  0  0
 43 15  1  6  0  0  0
 15 95  1  0  0  0  0
 44 16  1  6  0  0  0
 16 96  1  0  0  0  0
 17 47  1  0  0  0  0
 17 97  1  0  0  0  0
 18 48  1  0  0  0  0
 18 98  1  0  0  0  0
 19 20  1  0  0  0  0
 19 21  1  0  0  0  0
 19 24  1  0  0  0  0
 19 53  1  0  0  0  0
 20 22  1  0  0  0  0
 20 23  1  0  0  0  0
 20 54  1  0  0  0  0
 21 25  1  0  0  0  0
 21 55  1  0  0  0  0
 22 26  1  0  0  0  0
 22 56  1  0  0  0  0
 23 57  1  0  0  0  0
 23 58  1  0  0  0  0
 24 59  1  0  0  0  0
 24 60  1  0  0  0  0
 25 27  2  0  0  0  0
 25 29  1  0  0  0  0
 26 28  2  0  0  0  0
 26 30  1  0  0  0  0
 27 33  1  0  0  0  0
 27 61  1  0  0  0  0
 28 34  1  0  0  0  0
 28 62  1  0  0  0  0
 29 31  2  0  0  0  0
 29 63  1  0  0  0  0
 30 32  2  0  0  0  0
 30 64  1  0  0  0  0
 31 35  1  0  0  0  0
 32 36  1  0  0  0  0
 33 35  2  0  0  0  0
 34 36  2  0  0  0  0
 37 39  1  0  0  0  0
 37 65  1  0  0  0  0
 38 40  1  0  0  0  0
 38 66  1  0  0  0  0
 39 41  1  0  0  0  0
 39 67  1  0  0  0  0
 40 42  1  0  0  0  0
 40 68  1  0  0  0  0
 41 43  1  0  0  0  0
 41 69  1  0  0  0  0
 42 44  1  0  0  0  0
 42 70  1  0  0  0  0
 43 45  1  0  0  0  0
 43 71  1  0  0  0  0
 44 46  1  0  0  0  0
 44 72  1  0  0  0  0
 45 47  1  1  0  0  0
 45 73  1  0  0  0  0
 46 48  1  1  0  0  0
 46 74  1  0  0  0  0
 47 75  1  0  0  0  0
 47 76  1  0  0  0  0
 48 77  1  0  0  0  0
 48 78  1  0  0  0  0
 49 79  1  0  0  0  0
 49 80  1  0  0  0  0
 49 81  1  0  0  0  0
 50 82  1  0  0  0  0
 50 83  1  0  0  0  0
 50 84  1  0  0  0  0
 51 85  1  0  0  0  0
 51 86  1  0  0  0  0
 51 87  1  0  0  0  0
 52 88  1  0  0  0  0
 52 89  1  0  0  0  0
 52 90  1  0  0  0  0
M  END
> <PUBCHEM_COMPOUND_CID>
73636

> <PUBCHEM_COMPOUND_CANONICALIZED>
1

> <PUBCHEM_CACTVS_COMPLEXITY>
1010

> <PUBCHEM_CACTVS_HBOND_ACCEPTOR>
18

> <PUBCHEM_CACTVS_HBOND_DONOR>
8

> <PUBCHEM_CACTVS_ROTATABLE_BOND>
12

> <PUBCHEM_CACTVS_SUBSKEYS>
AAADcfB8PgAAAAAAAAAAAAAAAAAAASJAAAA0aIEAAAASAAABQAAAGgAACAAADRSwmAMyDoAABgCAAiBCAAACCAAgIAAAiAAGiIgdNyKEMRqieCKlwBUPqAfA4PwOoAABCAAAQABAAAIQAACAAAAAAAAAAA==

> <PUBCHEM_IUPAC_OPENEYE_NAME>
(2S,3R,4S,5S,6R)-2-[4-[6-[3,5-dimethoxy-4-[(2S,3R,4S,5S,6R)-3,4,5-trihydroxy-6-(hydroxymethyl)tetrahydropyran-2-yl]oxy-phenyl]-1,3,3a,4,6,6a-hexahydrofuro[3,4-c]furan-3-yl]-2,6-dimethoxy-phenoxy]-6-(hydroxymethyl)tetrahydropyran-3,4,5-triol

> <PUBCHEM_IUPAC_CAS_NAME>
(2S,3R,4S,5S,6R)-2-[4-[6-[3,5-dimethoxy-4-[[(2S,3R,4S,5S,6R)-3,4,5-trihydroxy-6-(hydroxymethyl)-2-oxanyl]oxy]phenyl]-1,3,3a,4,6,6a-hexahydrofuro[3,4-c]furan-3-yl]-2,6-dimethoxyphenoxy]-6-(hydroxymethyl)oxane-3,4,5-triol

> <PUBCHEM_IUPAC_NAME_MARKUP>
(2<I>S</I>,3<I>R</I>,4<I>S</I>,5<I>S</I>,6<I>R</I>)-2-[4-[6-[3,5-dimethoxy-4-[(2<I>S</I>,3<I>R</I>,4<I>S</I>,5<I>S</I>,6<I>R</I>)-3,4,5-trihydroxy-6-(hydroxymethyl)oxan-2-yl]oxyphenyl]-1,3,3<I>a</I>,4,6,6<I>a</I>-hexahydrofuro[3,4-c]furan-3-yl]-2,6-dimethoxyphenoxy]-6-(hydroxymethyl)oxane-3,4,5-triol

> <PUBCHEM_IUPAC_NAME>
(2S,3R,4S,5S,6R)-2-[4-[6-[3,5-dimethoxy-4-[(2S,3R,4S,5S,6R)-3,4,5-trihydroxy-6-(hydroxymethyl)oxan-2-yl]oxyphenyl]-1,3,3a,4,6,6a-hexahydrofuro[3,4-c]furan-3-yl]-2,6-dimethoxyphenoxy]-6-(hydroxymethyl)oxane-3,4,5-triol

> <PUBCHEM_IUPAC_SYSTEMATIC_NAME>
(2R,3S,4S,5R,6S)-2-(hydroxymethyl)-6-[4-[6-[4-[(2S,3R,4S,5S,6R)-6-(hydroxymethyl)-3,4,5-tris(oxidanyl)oxan-2-yl]oxy-3,5-dimethoxy-phenyl]-1,3,3a,4,6,6a-hexahydrofuro[3,4-c]furan-3-yl]-2,6-dimethoxy-phenoxy]oxane-3,4,5-triol

> <PUBCHEM_IUPAC_TRADITIONAL_NAME>
(2S,3R,4S,5S,6R)-2-[4-[6-[3,5-dimethoxy-4-[(2S,3R,4S,5S,6R)-3,4,5-trihydroxy-6-methylol-tetrahydropyran-2-yl]oxy-phenyl]-1,3,3a,4,6,6a-hexahydrofuro[3,4-c]furan-3-yl]-2,6-dimethoxy-phenoxy]-6-methylol-tetrahydropyran-3,4,5-triol

> <PUBCHEM_IUPAC_INCHI>
InChI=1S/C34H46O18/c1-43-17-5-13(6-18(44-2)31(17)51-33-27(41)25(39)23(37)21(9-35)49-33)29-15-11-48-30(16(15)12-47-29)14-7-19(45-3)32(20(8-14)46-4)52-34-28(42)26(40)24(38)22(10-36)50-34/h5-8,15-16,21-30,33-42H,9-12H2,1-4H3/t15?,16?,21-,22-,23-,24-,25+,26+,27-,28-,29?,30?,33+,34+/m1/s1

> <PUBCHEM_IUPAC_INCHIKEY>
FFDULTAFAQRACT-DVWYHDMESA-N

> <PUBCHEM_XLOGP3_AA>
-1.4

> <PUBCHEM_EXACT_MASS>
742.26841461

> <PUBCHEM_MOLECULAR_FORMULA>
C34H46O18

> <PUBCHEM_MOLECULAR_WEIGHT>
742.7

> <PUBCHEM_OPENEYE_CAN_SMILES>
COC1=CC(=CC(=C1OC2C(C(C(C(O2)CO)O)O)O)OC)C3C4COC(C4CO3)C5=CC(=C(C(=C5)OC)OC6C(C(C(C(O6)CO)O)O)O)OC

> <PUBCHEM_OPENEYE_ISO_SMILES>
COC1=CC(=CC(=C1O[C@H]2[C@@H]([C@H]([C@@H]([C@H](O2)CO)O)O)O)OC)C3C4COC(C4CO3)C5=CC(=C(C(=C5)OC)O[C@H]6[C@@H]([C@H]([C@@H]([C@H](O6)CO)O)O)O)OC

> <PUBCHEM_CACTVS_TPSA>
254

> <PUBCHEM_MONOISOTOPIC_WEIGHT>
742.26841461

> <PUBCHEM_TOTAL_CHARGE>
0

> <PUBCHEM_HEAVY_ATOM_COUNT>
52

> <PUBCHEM_ATOM_DEF_STEREO_COUNT>
10

> <PUBCHEM_ATOM_UDEF_STEREO_COUNT>
4

> <PUBCHEM_BOND_DEF_STEREO_COUNT>
0

> <PUBCHEM_BOND_UDEF_STEREO_COUNT>
0

> <PUBCHEM_ISOTOPIC_ATOM_COUNT>
0

> <PUBCHEM_COMPONENT_COUNT>
1

> <PUBCHEM_CACTVS_TAUTO_COUNT>
1

> <PUBCHEM_COORDINATE_TYPE>
1
5
255

> <PUBCHEM_BONDANNOTATIONS>
39  11  6
40  12  6
41  13  5
42  14  5
43  15  6
44  16  6
19  24  3
20  23  3
21  25  3
22  26  3
25  27  8
25  29  8
26  28  8
26  30  8
27  33  8
28  34  8
29  31  8
37  3  5
30  32  8
31  35  8
32  36  8
33  35  8
34  36  8
38  4  5
45  47  5
46  48  5

$$$$
