 
  -OEChem-10192104172D

 65 64  0     0  0  0  0  0  0999 V2000
    2.5369    6.2267    0.0000 O   0  0  0  0  0  0  0  0  0  0  0  0
    6.0010    6.2267    0.0000 O   0  0  0  0  0  0  0  0  0  0  0  0
    4.2690    7.9588    0.0000 O   0  0  0  0  0  0  0  0  0  0  0  0
    3.4030    4.7267    0.0000 O   0  0  0  0  0  0  0  0  0  0  0  0
    5.1350    7.7267    0.0000 O   0  0  0  0  0  0  0  0  0  0  0  0
    2.7690    7.0928    0.0000 O   0  0  0  0  0  0  0  0  0  0  0  0
    4.7690    0.1645    0.0000 C   0  0  0  0  0  0  0  0  0  0  0  0
    4.2690    1.0306    0.0000 C   0  0  0  0  0  0  0  0  0  0  0  0
    4.2690   -0.7015    0.0000 C   0  0  0  0  0  0  0  0  0  0  0  0
    4.7690    1.8966    0.0000 C   0  0  0  0  0  0  0  0  0  0  0  0
    4.7690   -1.5675    0.0000 C   0  0  0  0  0  0  0  0  0  0  0  0
    4.2690    2.7626    0.0000 C   0  0  0  0  0  0  0  0  0  0  0  0
    4.2690   -2.4335    0.0000 C   0  0  0  0  0  0  0  0  0  0  0  0
    4.7690    3.6286    0.0000 C   0  0  0  0  0  0  0  0  0  0  0  0
    4.7690   -3.2996    0.0000 C   0  0  0  0  0  0  0  0  0  0  0  0
    4.2690    4.4947    0.0000 C   0  0  0  0  0  0  0  0  0  0  0  0
    4.2690   -4.1656    0.0000 C   0  0  0  0  0  0  0  0  0  0  0  0
    4.7690    5.3607    0.0000 C   0  0  0  0  0  0  0  0  0  0  0  0
    4.7690   -5.0316    0.0000 C   0  0  0  0  0  0  0  0  0  0  0  0
    4.2690    6.2267    0.0000 C   0  0  0  0  0  0  0  0  0  0  0  0
    4.2690   -5.8976    0.0000 C   0  0  0  0  0  0  0  0  0  0  0  0
    4.7690   -6.7637    0.0000 C   0  0  0  0  0  0  0  0  0  0  0  0
    4.2690   -7.6297    0.0000 C   0  0  0  0  0  0  0  0  0  0  0  0
    3.4030    5.7267    0.0000 C   0  0  0  0  0  0  0  0  0  0  0  0
    5.1350    6.7267    0.0000 C   0  0  0  0  0  0  0  0  0  0  0  0
    3.7690    7.0928    0.0000 C   0  0  0  0  0  0  0  0  0  0  0  0
    4.7690   -8.4957    0.0000 C   0  0  0  0  0  0  0  0  0  0  0  0
    5.2439   -0.2340    0.0000 H   0  0  0  0  0  0  0  0  0  0  0  0
    5.2439    0.5631    0.0000 H   0  0  0  0  0  0  0  0  0  0  0  0
    3.7940    1.4291    0.0000 H   0  0  0  0  0  0  0  0  0  0  0  0
    3.7940    0.6320    0.0000 H   0  0  0  0  0  0  0  0  0  0  0  0
    3.7940   -0.3030    0.0000 H   0  0  0  0  0  0  0  0  0  0  0  0
    3.7940   -1.1000    0.0000 H   0  0  0  0  0  0  0  0  0  0  0  0
    5.2439    1.4981    0.0000 H   0  0  0  0  0  0  0  0  0  0  0  0
    5.2439    2.2951    0.0000 H   0  0  0  0  0  0  0  0  0  0  0  0
    5.2439   -1.9660    0.0000 H   0  0  0  0  0  0  0  0  0  0  0  0
    5.2439   -1.1690    0.0000 H   0  0  0  0  0  0  0  0  0  0  0  0
    3.7940    3.1612    0.0000 H   0  0  0  0  0  0  0  0  0  0  0  0
    3.7940    2.3641    0.0000 H   0  0  0  0  0  0  0  0  0  0  0  0
    3.7940   -2.0350    0.0000 H   0  0  0  0  0  0  0  0  0  0  0  0
    3.7940   -2.8321    0.0000 H   0  0  0  0  0  0  0  0  0  0  0  0
    5.2439    3.2301    0.0000 H   0  0  0  0  0  0  0  0  0  0  0  0
    5.2439    4.0272    0.0000 H   0  0  0  0  0  0  0  0  0  0  0  0
    5.2439   -3.6981    0.0000 H   0  0  0  0  0  0  0  0  0  0  0  0
    5.2439   -2.9010    0.0000 H   0  0  0  0  0  0  0  0  0  0  0  0
    3.7940    4.8932    0.0000 H   0  0  0  0  0  0  0  0  0  0  0  0
    3.7940    4.0961    0.0000 H   0  0  0  0  0  0  0  0  0  0  0  0
    3.7940   -3.7670    0.0000 H   0  0  0  0  0  0  0  0  0  0  0  0
    3.7940   -4.5641    0.0000 H   0  0  0  0  0  0  0  0  0  0  0  0
    5.2439    4.9622    0.0000 H   0  0  0  0  0  0  0  0  0  0  0  0
    5.2439    5.7592    0.0000 H   0  0  0  0  0  0  0  0  0  0  0  0
    5.2439   -5.4301    0.0000 H   0  0  0  0  0  0  0  0  0  0  0  0
    5.2439   -4.6331    0.0000 H   0  0  0  0  0  0  0  0  0  0  0  0
    3.7940   -5.4991    0.0000 H   0  0  0  0  0  0  0  0  0  0  0  0
    3.7940   -6.2962    0.0000 H   0  0  0  0  0  0  0  0  0  0  0  0
    5.2439   -7.1622    0.0000 H   0  0  0  0  0  0  0  0  0  0  0  0
    5.2439   -6.3651    0.0000 H   0  0  0  0  0  0  0  0  0  0  0  0
    3.7940   -7.2312    0.0000 H   0  0  0  0  0  0  0  0  0  0  0  0
    3.7940   -8.0282    0.0000 H   0  0  0  0  0  0  0  0  0  0  0  0
    4.2320   -8.8057    0.0000 H   0  0  0  0  0  0  0  0  0  0  0  0
    5.0790   -9.0326    0.0000 H   0  0  0  0  0  0  0  0  0  0  0  0
    5.3059   -8.1857    0.0000 H   0  0  0  0  0  0  0  0  0  0  0  0
    2.0000    5.9167    0.0000 H   0  0  0  0  0  0  0  0  0  0  0  0
    6.5380    6.5367    0.0000 H   0  0  0  0  0  0  0  0  0  0  0  0
    3.9590    8.4957    0.0000 H   0  0  0  0  0  0  0  0  0  0  0  0
  1 24  1  0  0  0  0
  1 63  1  0  0  0  0
  2 25  1  0  0  0  0
  2 64  1  0  0  0  0
  3 26  1  0  0  0  0
  3 65  1  0  0  0  0
  4 24  2  0  0  0  0
  5 25  2  0  0  0  0
  6 26  2  0  0  0  0
  7  8  1  0  0  0  0
  7  9  1  0  0  0  0
  7 28  1  0  0  0  0
  7 29  1  0  0  0  0
  8 10  1  0  0  0  0
  8 30  1  0  0  0  0
  8 31  1  0  0  0  0
  9 11  1  0  0  0  0
  9 32  1  0  0  0  0
  9 33  1  0  0  0  0
 10 12  1  0  0  0  0
 10 34  1  0  0  0  0
 10 35  1  0  0  0  0
 11 13  1  0  0  0  0
 11 36  1  0  0  0  0
 11 37  1  0  0  0  0
 12 14  1  0  0  0  0
 12 38  1  0  0  0  0
 12 39  1  0  0  0  0
 13 15  1  0  0  0  0
 13 40  1  0  0  0  0
 13 41  1  0  0  0  0
 14 16  1  0  0  0  0
 14 42  1  0  0  0  0
 14 43  1  0  0  0  0
 15 17  1  0  0  0  0
 15 44  1  0  0  0  0
 15 45  1  0  0  0  0
 16 18  1  0  0  0  0
 16 46  1  0  0  0  0
 16 47  1  0  0  0  0
 17 19  1  0  0  0  0
 17 48  1  0  0  0  0
 17 49  1  0  0  0  0
 18 20  1  0  0  0  0
 18 50  1  0  0  0  0
 18 51  1  0  0  0  0
 19 21  1  0  0  0  0
 19 52  1  0  0  0  0
 19 53  1  0  0  0  0
 20 24  1  0  0  0  0
 20 25  1  0  0  0  0
 20 26  1  0  0  0  0
 21 22  1  0  0  0  0
 21 54  1  0  0  0  0
 21 55  1  0  0  0  0
 22 23  1  0  0  0  0
 22 56  1  0  0  0  0
 22 57  1  0  0  0  0
 23 27  1  0  0  0  0
 23 58  1  0  0  0  0
 23 59  1  0  0  0  0
 27 60  1  0  0  0  0
 27 61  1  0  0  0  0
 27 62  1  0  0  0  0
M  END
> <PUBCHEM_COMPOUND_CID>
57231234

> <PUBCHEM_COMPOUND_CANONICALIZED>
1

> <PUBCHEM_CACTVS_COMPLEXITY>
396

> <PUBCHEM_CACTVS_HBOND_ACCEPTOR>
6

> <PUBCHEM_CACTVS_HBOND_DONOR>
3

> <PUBCHEM_CACTVS_ROTATABLE_BOND>
19

> <PUBCHEM_CACTVS_SUBSKEYS>
AAADcfB4OAAAAAAAAAAAAAAAAAAAAAAAAAAAAAAAAAAAAAAAAAAAGgAACAAADgCAgAACCAAAAgAIAACQCAAAAAAAAAAAAAEAAAAAABYIAAAAQAAFIAAAAAGIyOCNAAAAAAAAAAAAAAAAAAAAAAAAAAAAAA==

> <PUBCHEM_IUPAC_OPENEYE_NAME>
octadecane-1,1,1-tricarboxylic acid

> <PUBCHEM_IUPAC_CAS_NAME>
octadecane-1,1,1-tricarboxylic acid

> <PUBCHEM_IUPAC_NAME_MARKUP>
octadecane-1,1,1-tricarboxylic acid

> <PUBCHEM_IUPAC_NAME>
octadecane-1,1,1-tricarboxylic acid

> <PUBCHEM_IUPAC_SYSTEMATIC_NAME>
octadecane-1,1,1-tricarboxylic acid

> <PUBCHEM_IUPAC_TRADITIONAL_NAME>
octadecane-1,1,1-tricarboxylic acid

> <PUBCHEM_IUPAC_INCHI>
InChI=1S/C21H38O6/c1-2-3-4-5-6-7-8-9-10-11-12-13-14-15-16-17-21(18(22)23,19(24)25)20(26)27/h2-17H2,1H3,(H,22,23)(H,24,25)(H,26,27)

> <PUBCHEM_IUPAC_INCHIKEY>
SHBZNBGCSLNNAW-UHFFFAOYSA-N

> <PUBCHEM_XLOGP3_AA>
8.1

> <PUBCHEM_EXACT_MASS>
386.26683893

> <PUBCHEM_MOLECULAR_FORMULA>
C21H38O6

> <PUBCHEM_MOLECULAR_WEIGHT>
386.5

> <PUBCHEM_OPENEYE_CAN_SMILES>
CCCCCCCCCCCCCCCCCC(C(=O)O)(C(=O)O)C(=O)O

> <PUBCHEM_OPENEYE_ISO_SMILES>
CCCCCCCCCCCCCCCCCC(C(=O)O)(C(=O)O)C(=O)O

> <PUBCHEM_CACTVS_TPSA>
112

> <PUBCHEM_MONOISOTOPIC_WEIGHT>
386.26683893

> <PUBCHEM_TOTAL_CHARGE>
0

> <PUBCHEM_HEAVY_ATOM_COUNT>
27

> <PUBCHEM_ATOM_DEF_STEREO_COUNT>
0

> <PUBCHEM_ATOM_UDEF_STEREO_COUNT>
0

> <PUBCHEM_BOND_DEF_STEREO_COUNT>
0

> <PUBCHEM_BOND_UDEF_STEREO_COUNT>
0

> <PUBCHEM_ISOTOPIC_ATOM_COUNT>
0

> <PUBCHEM_COMPONENT_COUNT>
1

> <PUBCHEM_CACTVS_TAUTO_COUNT>
-1

> <PUBCHEM_COORDINATE_TYPE>
1
5
255

$$$$
