 
  -OEChem-10192103292D

 33 32  0     0  0  0  0  0  0999 V2000
    2.8660    3.5950    0.0000 O   0  0  0  0  0  0  0  0  0  0  0  0
    2.0000    2.0950    0.0000 O   0  0  0  0  0  0  0  0  0  0  0  0
    8.0622   -2.4050    0.0000 O   0  0  0  0  0  0  0  0  0  0  0  0
    7.1962   -0.9050    0.0000 O   0  0  0  0  0  0  0  0  0  0  0  0
    4.5981    0.5950    0.0000 C   0  0  0  0  0  0  0  0  0  0  0  0
    4.5981   -0.4050    0.0000 C   0  0  0  0  0  0  0  0  0  0  0  0
    3.7320    1.0950    0.0000 C   0  0  0  0  0  0  0  0  0  0  0  0
    5.4641   -0.9050    0.0000 C   0  0  0  0  0  0  0  0  0  0  0  0
    3.7320    2.0950    0.0000 C   0  0  0  0  0  0  0  0  0  0  0  0
    5.4641   -1.9050    0.0000 C   0  0  0  0  0  0  0  0  0  0  0  0
    6.3301   -2.4050    0.0000 C   0  0  0  0  0  0  0  0  0  0  0  0
    6.3301   -3.4050    0.0000 C   0  0  0  0  0  0  0  0  0  0  0  0
    2.8660    2.5950    0.0000 C   0  0  0  0  0  0  0  0  0  0  0  0
    5.4641   -3.9050    0.0000 C   0  0  0  0  0  0  0  0  0  0  0  0
    7.1962   -1.9050    0.0000 C   0  0  0  0  0  0  0  0  0  0  0  0
    5.2087    0.4873    0.0000 H   0  0  0  0  0  0  0  0  0  0  0  0
    4.8101    1.1776    0.0000 H   0  0  0  0  0  0  0  0  0  0  0  0
    3.9875   -0.2973    0.0000 H   0  0  0  0  0  0  0  0  0  0  0  0
    4.3860   -0.9876    0.0000 H   0  0  0  0  0  0  0  0  0  0  0  0
    3.1215    1.2027    0.0000 H   0  0  0  0  0  0  0  0  0  0  0  0
    3.5200    0.5124    0.0000 H   0  0  0  0  0  0  0  0  0  0  0  0
    6.0747   -1.0127    0.0000 H   0  0  0  0  0  0  0  0  0  0  0  0
    5.6762   -0.3224    0.0000 H   0  0  0  0  0  0  0  0  0  0  0  0
    4.3426    1.9873    0.0000 H   0  0  0  0  0  0  0  0  0  0  0  0
    3.9441    2.6776    0.0000 H   0  0  0  0  0  0  0  0  0  0  0  0
    4.9272   -2.2150    0.0000 H   0  0  0  0  0  0  0  0  0  0  0  0
    6.5422   -3.9876    0.0000 H   0  0  0  0  0  0  0  0  0  0  0  0
    6.9407   -3.2973    0.0000 H   0  0  0  0  0  0  0  0  0  0  0  0
    5.1541   -3.3681    0.0000 H   0  0  0  0  0  0  0  0  0  0  0  0
    4.9272   -4.2150    0.0000 H   0  0  0  0  0  0  0  0  0  0  0  0
    5.7741   -4.4419    0.0000 H   0  0  0  0  0  0  0  0  0  0  0  0
    2.3291    3.9050    0.0000 H   0  0  0  0  0  0  0  0  0  0  0  0
    8.5991   -2.0950    0.0000 H   0  0  0  0  0  0  0  0  0  0  0  0
  1 13  1  0  0  0  0
  1 32  1  0  0  0  0
  2 13  2  0  0  0  0
  3 15  1  0  0  0  0
  3 33  1  0  0  0  0
  4 15  2  0  0  0  0
  5  6  1  0  0  0  0
  5  7  1  0  0  0  0
  5 16  1  0  0  0  0
  5 17  1  0  0  0  0
  6  8  1  0  0  0  0
  6 18  1  0  0  0  0
  6 19  1  0  0  0  0
  7  9  1  0  0  0  0
  7 20  1  0  0  0  0
  7 21  1  0  0  0  0
  8 10  1  0  0  0  0
  8 22  1  0  0  0  0
  8 23  1  0  0  0  0
  9 13  1  0  0  0  0
  9 24  1  0  0  0  0
  9 25  1  0  0  0  0
 10 11  2  0  0  0  0
 10 26  1  0  0  0  0
 11 12  1  0  0  0  0
 11 15  1  0  0  0  0
 12 14  1  0  0  0  0
 12 27  1  0  0  0  0
 12 28  1  0  0  0  0
 14 29  1  0  0  0  0
 14 30  1  0  0  0  0
 14 31  1  0  0  0  0
M  END
> <PUBCHEM_COMPOUND_CID>
135307936

> <PUBCHEM_COMPOUND_CANONICALIZED>
1

> <PUBCHEM_CACTVS_COMPLEXITY>
243

> <PUBCHEM_CACTVS_HBOND_ACCEPTOR>
4

> <PUBCHEM_CACTVS_HBOND_DONOR>
2

> <PUBCHEM_CACTVS_ROTATABLE_BOND>
8

> <PUBCHEM_CACTVS_SUBSKEYS>
AAADceBwOAAAAAAAAAAAAAAAAAAAAAAAAAAAAAAAAAAAAAAAAAAAGgAACAAADACAgAACCAAAAgCIAiDSCAAAAAAgAAAACAEAAEgABBIAAQAAUAAEgAAIEYOIyCCAAAAAAAAAAAAAAAAAAAAAAAAAAAAAAA==

> <PUBCHEM_IUPAC_OPENEYE_NAME>
(Z)-2-ethylnon-2-enedioic acid

> <PUBCHEM_IUPAC_CAS_NAME>
(Z)-2-ethyl-2-nonenedioic acid

> <PUBCHEM_IUPAC_NAME_MARKUP>
(<I>Z</I>)-2-ethylnon-2-enedioic acid

> <PUBCHEM_IUPAC_NAME>
(Z)-2-ethylnon-2-enedioic acid

> <PUBCHEM_IUPAC_SYSTEMATIC_NAME>
(Z)-2-ethylnon-2-enedioic acid

> <PUBCHEM_IUPAC_TRADITIONAL_NAME>
(Z)-2-ethylnon-2-enedioic acid

> <PUBCHEM_IUPAC_INCHI>
InChI=1S/C11H18O4/c1-2-9(11(14)15)7-5-3-4-6-8-10(12)13/h7H,2-6,8H2,1H3,(H,12,13)(H,14,15)/b9-7-

> <PUBCHEM_IUPAC_INCHIKEY>
SBIRCKOYFIETKI-CLFYSBASSA-N

> <PUBCHEM_XLOGP3_AA>
2.3

> <PUBCHEM_EXACT_MASS>
214.12050905

> <PUBCHEM_MOLECULAR_FORMULA>
C11H18O4

> <PUBCHEM_MOLECULAR_WEIGHT>
214.26

> <PUBCHEM_OPENEYE_CAN_SMILES>
CCC(=CCCCCCC(=O)O)C(=O)O

> <PUBCHEM_OPENEYE_ISO_SMILES>
CC/C(=C/CCCCCC(=O)O)/C(=O)O

> <PUBCHEM_CACTVS_TPSA>
74.6

> <PUBCHEM_MONOISOTOPIC_WEIGHT>
214.12050905

> <PUBCHEM_TOTAL_CHARGE>
0

> <PUBCHEM_HEAVY_ATOM_COUNT>
15

> <PUBCHEM_ATOM_DEF_STEREO_COUNT>
0

> <PUBCHEM_ATOM_UDEF_STEREO_COUNT>
0

> <PUBCHEM_BOND_DEF_STEREO_COUNT>
1

> <PUBCHEM_BOND_UDEF_STEREO_COUNT>
0

> <PUBCHEM_ISOTOPIC_ATOM_COUNT>
0

> <PUBCHEM_COMPONENT_COUNT>
1

> <PUBCHEM_CACTVS_TAUTO_COUNT>
-1

> <PUBCHEM_COORDINATE_TYPE>
1
5
255

$$$$
