 
  -OEChem-10192103502D

 60 62  0     1  0  0  0  0  0999 V2000
    5.4641   -3.5000    0.0000 O   0  0  0  0  0  0  0  0  0  0  0  0
    4.5981    4.0000    0.0000 O   0  0  0  0  0  0  0  0  0  0  0  0
    3.7320   -5.5000    0.0000 O   0  0  0  0  0  0  0  0  0  0  0  0
    7.1962    3.5000    0.0000 O   0  0  0  0  0  0  0  0  0  0  0  0
    5.4641   -6.5000    0.0000 O   0  0  0  0  0  0  0  0  0  0  0  0
    7.1962    5.5000    0.0000 O   0  0  0  0  0  0  0  0  0  0  0  0
    7.1962   -5.5000    0.0000 O   0  0  0  0  0  0  0  0  0  0  0  0
    5.4641    6.5000    0.0000 O   0  0  0  0  0  0  0  0  0  0  0  0
    7.1962   -3.5000    0.0000 O   0  0  0  0  0  0  0  0  0  0  0  0
    3.7320    5.5000    0.0000 O   0  0  0  0  0  0  0  0  0  0  0  0
    3.7320   -2.5000    0.0000 O   0  0  0  0  0  0  0  0  0  0  0  0
    4.5981    2.0000    0.0000 O   0  0  0  0  0  0  0  0  0  0  0  0
    2.0000   -2.5000    0.0000 O   0  0  0  0  0  0  0  0  0  0  0  0
    5.4641    0.5000    0.0000 O   0  0  0  0  0  0  0  0  0  0  0  0
    4.5981   -5.0000    0.0000 C   0  0  1  0  0  0  0  0  0  0  0  0
    6.3301    4.0000    0.0000 C   0  0  1  0  0  0  0  0  0  0  0  0
    5.4641   -5.5000    0.0000 C   0  0  1  0  0  0  0  0  0  0  0  0
    6.3301    5.0000    0.0000 C   0  0  1  0  0  0  0  0  0  0  0  0
    4.5981   -4.0000    0.0000 C   0  0  1  0  0  0  0  0  0  0  0  0
    5.4641    3.5000    0.0000 C   0  0  1  0  0  0  0  0  0  0  0  0
    6.3301   -5.0000    0.0000 C   0  0  2  0  0  0  0  0  0  0  0  0
    5.4641    5.5000    0.0000 C   0  0  2  0  0  0  0  0  0  0  0  0
    6.3301   -4.0000    0.0000 C   0  0  2  0  0  0  0  0  0  0  0  0
    4.5981    5.0000    0.0000 C   0  0  2  0  0  0  0  0  0  0  0  0
    3.7320   -3.5000    0.0000 C   0  0  0  0  0  0  0  0  0  0  0  0
    5.4641    2.5000    0.0000 C   0  0  0  0  0  0  0  0  0  0  0  0
    2.8660   -2.0000    0.0000 C   0  0  0  0  0  0  0  0  0  0  0  0
    4.5981    1.0000    0.0000 C   0  0  0  0  0  0  0  0  0  0  0  0
    2.8660   -1.0000    0.0000 C   0  0  0  0  0  0  0  0  0  0  0  0
    3.7320    0.5000    0.0000 C   0  0  0  0  0  0  0  0  0  0  0  0
    3.7320   -0.5000    0.0000 C   0  0  0  0  0  0  0  0  0  0  0  0
    2.0000   -0.5000    0.0000 C   0  0  0  0  0  0  0  0  0  0  0  0
    2.8660    1.0000    0.0000 C   0  0  0  0  0  0  0  0  0  0  0  0
    2.0000    0.5000    0.0000 C   0  0  0  0  0  0  0  0  0  0  0  0
    4.5981   -5.6200    0.0000 H   0  0  0  0  0  0  0  0  0  0  0  0
    6.3301    3.3800    0.0000 H   0  0  0  0  0  0  0  0  0  0  0  0
    4.9272   -5.8100    0.0000 H   0  0  0  0  0  0  0  0  0  0  0  0
    6.8671    4.6900    0.0000 H   0  0  0  0  0  0  0  0  0  0  0  0
    4.5981   -3.3800    0.0000 H   0  0  0  0  0  0  0  0  0  0  0  0
    4.9272    3.1900    0.0000 H   0  0  0  0  0  0  0  0  0  0  0  0
    6.3301   -5.6200    0.0000 H   0  0  0  0  0  0  0  0  0  0  0  0
    6.0010    5.8100    0.0000 H   0  0  0  0  0  0  0  0  0  0  0  0
    6.3301   -3.3800    0.0000 H   0  0  0  0  0  0  0  0  0  0  0  0
    4.5981    5.6200    0.0000 H   0  0  0  0  0  0  0  0  0  0  0  0
    3.1215   -3.3923    0.0000 H   0  0  0  0  0  0  0  0  0  0  0  0
    3.5200   -4.0826    0.0000 H   0  0  0  0  0  0  0  0  0  0  0  0
    5.6762    1.9174    0.0000 H   0  0  0  0  0  0  0  0  0  0  0  0
    6.0747    2.6077    0.0000 H   0  0  0  0  0  0  0  0  0  0  0  0
    3.1951   -5.1900    0.0000 H   0  0  0  0  0  0  0  0  0  0  0  0
    7.7331    3.8100    0.0000 H   0  0  0  0  0  0  0  0  0  0  0  0
    6.0010   -6.8100    0.0000 H   0  0  0  0  0  0  0  0  0  0  0  0
    7.1962    6.1200    0.0000 H   0  0  0  0  0  0  0  0  0  0  0  0
    7.7331   -5.1900    0.0000 H   0  0  0  0  0  0  0  0  0  0  0  0
    4.9272    6.8100    0.0000 H   0  0  0  0  0  0  0  0  0  0  0  0
    7.1962   -2.8800    0.0000 H   0  0  0  0  0  0  0  0  0  0  0  0
    3.1951    5.1900    0.0000 H   0  0  0  0  0  0  0  0  0  0  0  0
    4.2690   -0.8100    0.0000 H   0  0  0  0  0  0  0  0  0  0  0  0
    1.4631   -0.8100    0.0000 H   0  0  0  0  0  0  0  0  0  0  0  0
    2.8660    1.6200    0.0000 H   0  0  0  0  0  0  0  0  0  0  0  0
    1.4631    0.8100    0.0000 H   0  0  0  0  0  0  0  0  0  0  0  0
  1 19  1  0  0  0  0
  1 23  1  0  0  0  0
  2 20  1  0  0  0  0
  2 24  1  0  0  0  0
 15  3  1  6  0  0  0
  3 49  1  0  0  0  0
 16  4  1  6  0  0  0
  4 50  1  0  0  0  0
 17  5  1  1  0  0  0
  5 51  1  0  0  0  0
 18  6  1  1  0  0  0
  6 52  1  0  0  0  0
 21  7  1  6  0  0  0
  7 53  1  0  0  0  0
 22  8  1  6  0  0  0
  8 54  1  0  0  0  0
 23  9  1  6  0  0  0
  9 55  1  0  0  0  0
 24 10  1  6  0  0  0
 10 56  1  0  0  0  0
 11 25  1  0  0  0  0
 11 27  1  0  0  0  0
 12 26  1  0  0  0  0
 12 28  1  0  0  0  0
 13 27  2  0  0  0  0
 14 28  2  0  0  0  0
 15 17  1  0  0  0  0
 15 19  1  0  0  0  0
 15 35  1  0  0  0  0
 16 18  1  0  0  0  0
 16 20  1  0  0  0  0
 16 36  1  0  0  0  0
 17 21  1  0  0  0  0
 17 37  1  0  0  0  0
 18 22  1  0  0  0  0
 18 38  1  0  0  0  0
 19 25  1  1  0  0  0
 19 39  1  0  0  0  0
 20 26  1  1  0  0  0
 20 40  1  0  0  0  0
 21 23  1  0  0  0  0
 21 41  1  0  0  0  0
 22 24  1  0  0  0  0
 22 42  1  0  0  0  0
 23 43  1  0  0  0  0
 24 44  1  0  0  0  0
 25 45  1  0  0  0  0
 25 46  1  0  0  0  0
 26 47  1  0  0  0  0
 26 48  1  0  0  0  0
 27 29  1  0  0  0  0
 28 30  1  0  0  0  0
 29 31  2  0  0  0  0
 29 32  1  0  0  0  0
 30 31  1  0  0  0  0
 30 33  2  0  0  0  0
 31 57  1  0  0  0  0
 32 34  2  0  0  0  0
 32 58  1  0  0  0  0
 33 34  1  0  0  0  0
 33 59  1  0  0  0  0
 34 60  1  0  0  0  0
M  END
> <PUBCHEM_COMPOUND_CID>
90035428

> <PUBCHEM_COMPOUND_CANONICALIZED>
1

> <PUBCHEM_CACTVS_COMPLEXITY>
649

> <PUBCHEM_CACTVS_HBOND_ACCEPTOR>
14

> <PUBCHEM_CACTVS_HBOND_DONOR>
8

> <PUBCHEM_CACTVS_ROTATABLE_BOND>
8

> <PUBCHEM_CACTVS_SUBSKEYS>
AAADceB4PAAAAAAAAAAAAAAAAAAAAAAAAAA0SIAAAAAAAAABAAAAGgAACAAADBSwmAMwCIAABgCIAiDSCAACAAAkAAAIiAEACMgZNjKANRiCcQAlwAEPqYfI7myOAAACAAAAAAAAAAQAAAAAAAAAAAAAAA==

> <PUBCHEM_IUPAC_OPENEYE_NAME>
bis[[(2R,3S,4S,5R,6S)-3,4,5,6-tetrahydroxytetrahydropyran-2-yl]methyl] benzene-1,3-dicarboxylate

> <PUBCHEM_IUPAC_CAS_NAME>
benzene-1,3-dicarboxylic acid bis[[(2R,3S,4S,5R,6S)-3,4,5,6-tetrahydroxy-2-oxanyl]methyl] ester

> <PUBCHEM_IUPAC_NAME_MARKUP>
bis[[(2<I>R</I>,3<I>S</I>,4<I>S</I>,5<I>R</I>,6<I>S</I>)-3,4,5,6-tetrahydroxyoxan-2-yl]methyl] benzene-1,3-dicarboxylate

> <PUBCHEM_IUPAC_NAME>
bis[[(2R,3S,4S,5R,6S)-3,4,5,6-tetrahydroxyoxan-2-yl]methyl] benzene-1,3-dicarboxylate

> <PUBCHEM_IUPAC_SYSTEMATIC_NAME>
bis[[(2R,3S,4S,5R,6S)-3,4,5,6-tetrakis(oxidanyl)oxan-2-yl]methyl] benzene-1,3-dicarboxylate

> <PUBCHEM_IUPAC_TRADITIONAL_NAME>
benzene-1,3-dicarboxylic acid bis[[(2R,3S,4S,5R,6S)-3,4,5,6-tetrahydroxytetrahydropyran-2-yl]methyl] ester

> <PUBCHEM_IUPAC_INCHI>
InChI=1S/C20H26O14/c21-11-9(33-19(29)15(25)13(11)23)5-31-17(27)7-2-1-3-8(4-7)18(28)32-6-10-12(22)14(24)16(26)20(30)34-10/h1-4,9-16,19-26,29-30H,5-6H2/t9-,10-,11-,12-,13+,14+,15-,16-,19+,20+/m1/s1

> <PUBCHEM_IUPAC_INCHIKEY>
HTGVRBNYDBHHQL-SHJINENGSA-N

> <PUBCHEM_XLOGP3_AA>
-3.7

> <PUBCHEM_EXACT_MASS>
490.13225550

> <PUBCHEM_MOLECULAR_FORMULA>
C20H26O14

> <PUBCHEM_MOLECULAR_WEIGHT>
490.4

> <PUBCHEM_OPENEYE_CAN_SMILES>
C1=CC(=CC(=C1)C(=O)OCC2C(C(C(C(O2)O)O)O)O)C(=O)OCC3C(C(C(C(O3)O)O)O)O

> <PUBCHEM_OPENEYE_ISO_SMILES>
C1=CC(=CC(=C1)C(=O)OC[C@@H]2[C@H]([C@@H]([C@H]([C@H](O2)O)O)O)O)C(=O)OC[C@@H]3[C@H]([C@@H]([C@H]([C@H](O3)O)O)O)O

> <PUBCHEM_CACTVS_TPSA>
233

> <PUBCHEM_MONOISOTOPIC_WEIGHT>
490.13225550

> <PUBCHEM_TOTAL_CHARGE>
0

> <PUBCHEM_HEAVY_ATOM_COUNT>
34

> <PUBCHEM_ATOM_DEF_STEREO_COUNT>
10

> <PUBCHEM_ATOM_UDEF_STEREO_COUNT>
0

> <PUBCHEM_BOND_DEF_STEREO_COUNT>
0

> <PUBCHEM_BOND_UDEF_STEREO_COUNT>
0

> <PUBCHEM_ISOTOPIC_ATOM_COUNT>
0

> <PUBCHEM_COMPONENT_COUNT>
1

> <PUBCHEM_CACTVS_TAUTO_COUNT>
-1

> <PUBCHEM_COORDINATE_TYPE>
1
5
255

> <PUBCHEM_BONDANNOTATIONS>
24  10  6
19  25  5
20  26  5
29  31  8
29  32  8
15  3  6
30  31  8
30  33  8
32  34  8
33  34  8
16  4  6
17  5  5
18  6  5
21  7  6
22  8  6
23  9  6

$$$$
