 
  -OEChem-10192103282D

 78 82  0     1  0  0  0  0  0999 V2000
    8.0000   -1.5409    0.0000 P   0  0  3  0  0  0  0  0  0  0  0  0
   10.6783   -2.8456    0.0000 O   0  0  0  0  0  0  0  0  0  0  0  0
    8.8660   -1.0409    0.0000 O   0  0  0  0  0  0  0  0  0  0  0  0
   10.9889   -0.2857    0.0000 O   0  0  0  0  0  0  0  0  0  0  0  0
    8.0000   -2.5409    0.0000 O   0  0  0  0  0  0  0  0  0  0  0  0
    7.0000   -1.5409    0.0000 O   0  0  0  0  0  0  0  0  0  0  0  0
    7.5000   -0.6749    0.0000 O   0  0  0  0  0  0  0  0  0  0  0  0
   10.6318    1.4092    0.0000 O   0  0  0  0  0  0  0  0  0  0  0  0
    9.3426    0.2524    0.0000 O   0  0  0  0  0  0  0  0  0  0  0  0
   15.4908   -1.1897    0.0000 O   0  0  0  0  0  0  0  0  0  0  0  0
    3.5000   -4.1390    0.0000 O   0  0  0  0  0  0  0  0  0  0  0  0
    3.5000   -2.4069    0.0000 O   0  0  0  0  0  0  0  0  0  0  0  0
   12.2619   -2.0409    0.0000 N   0  0  0  0  0  0  0  0  0  0  0  0
   13.7917   -2.5409    0.0000 N   0  0  0  0  0  0  0  0  0  0  0  0
   12.6393   -0.2577    0.0000 N   0  0  0  0  0  0  0  0  0  0  0  0
   14.3341    0.0995    0.0000 N   0  0  0  0  0  0  0  0  0  0  0  0
   13.1774    1.3887    0.0000 N   0  0  0  0  0  0  0  0  0  0  0  0
    9.7320   -1.5409    0.0000 C   0  0  2  0  0  0  0  0  0  0  0  0
    9.7320   -2.5409    0.0000 C   0  0  1  0  0  0  0  0  0  0  0  0
   10.6783   -1.2362    0.0000 C   0  0  1  0  0  0  0  0  0  0  0  0
   11.2619   -2.0409    0.0000 C   0  0  1  0  0  0  0  0  0  0  0  0
    8.8660   -3.0409    0.0000 C   0  0  0  0  0  0  0  0  0  0  0  0
   12.8455   -1.2362    0.0000 C   0  0  0  0  0  0  0  0  0  0  0  0
   12.8455   -2.8456    0.0000 C   0  0  0  0  0  0  0  0  0  0  0  0
   13.7960   -1.5468    0.0000 C   0  0  0  0  0  0  0  0  0  0  0  0
   10.3211    0.4586    0.0000 C   0  0  0  0  0  0  0  0  0  0  0  0
    6.5000   -2.4069    0.0000 C   0  0  0  0  0  0  0  0  0  0  0  0
    5.5000   -2.4069    0.0000 C   0  0  0  0  0  0  0  0  0  0  0  0
   14.5403   -0.8790    0.0000 C   0  0  0  0  0  0  0  0  0  0  0  0
    5.0000   -3.2730    0.0000 C   0  0  1  0  0  0  0  0  0  0  0  0
   13.3836    0.4102    0.0000 C   0  0  0  0  0  0  0  0  0  0  0  0
    5.5000   -4.1390    0.0000 C   0  0  0  0  0  0  0  0  0  0  0  0
    9.9639    2.1535    0.0000 C   0  0  0  0  0  0  0  0  0  0  0  0
    4.0000   -3.2730    0.0000 C   0  0  0  0  0  0  0  0  0  0  0  0
   10.2746    3.1040    0.0000 C   0  0  0  0  0  0  0  0  0  0  0  0
   16.2351   -0.5218    0.0000 C   0  0  0  0  0  0  0  0  0  0  0  0
    2.5000   -4.1390    0.0000 C   0  0  0  0  0  0  0  0  0  0  0  0
    9.6067    3.8483    0.0000 C   0  0  0  0  0  0  0  0  0  0  0  0
   11.2531    3.3102    0.0000 C   0  0  0  0  0  0  0  0  0  0  0  0
    2.0000   -5.0050    0.0000 C   0  0  0  0  0  0  0  0  0  0  0  0
    2.0000   -3.2730    0.0000 C   0  0  0  0  0  0  0  0  0  0  0  0
    9.9174    4.7988    0.0000 C   0  0  0  0  0  0  0  0  0  0  0  0
   11.5637    4.2607    0.0000 C   0  0  0  0  0  0  0  0  0  0  0  0
   10.8959    5.0050    0.0000 C   0  0  0  0  0  0  0  0  0  0  0  0
    9.8220   -0.6957    0.0000 H   0  0  0  0  0  0  0  0  0  0  0  0
    9.8220   -3.3862    0.0000 H   0  0  0  0  0  0  0  0  0  0  0  0
   10.2408   -0.7968    0.0000 H   0  0  0  0  0  0  0  0  0  0  0  0
   11.5436   -2.5932    0.0000 H   0  0  0  0  0  0  0  0  0  0  0  0
    8.4675   -3.5159    0.0000 H   0  0  0  0  0  0  0  0  0  0  0  0
    9.2646   -3.5159    0.0000 H   0  0  0  0  0  0  0  0  0  0  0  0
   12.6529   -3.4350    0.0000 H   0  0  0  0  0  0  0  0  0  0  0  0
    6.3923   -3.0175    0.0000 H   0  0  0  0  0  0  0  0  0  0  0  0
    7.0826   -2.6190    0.0000 H   0  0  0  0  0  0  0  0  0  0  0  0
    5.6077   -1.7964    0.0000 H   0  0  0  0  0  0  0  0  0  0  0  0
    4.9174   -2.1949    0.0000 H   0  0  0  0  0  0  0  0  0  0  0  0
    5.6200   -3.2730    0.0000 H   0  0  0  0  0  0  0  0  0  0  0  0
    4.9631   -4.4490    0.0000 H   0  0  0  0  0  0  0  0  0  0  0  0
    5.8100   -4.6759    0.0000 H   0  0  0  0  0  0  0  0  0  0  0  0
    6.0369   -3.8290    0.0000 H   0  0  0  0  0  0  0  0  0  0  0  0
    9.4170    2.4455    0.0000 H   0  0  0  0  0  0  0  0  0  0  0  0
    9.5814    1.6656    0.0000 H   0  0  0  0  0  0  0  0  0  0  0  0
   13.6388    1.8027    0.0000 H   0  0  0  0  0  0  0  0  0  0  0  0
   12.5880    1.5813    0.0000 H   0  0  0  0  0  0  0  0  0  0  0  0
   16.6492   -0.9833    0.0000 H   0  0  0  0  0  0  0  0  0  0  0  0
   16.6966   -0.1078    0.0000 H   0  0  0  0  0  0  0  0  0  0  0  0
   15.8211   -0.0604    0.0000 H   0  0  0  0  0  0  0  0  0  0  0  0
    2.8100   -4.6759    0.0000 H   0  0  0  0  0  0  0  0  0  0  0  0
    9.0000    3.7204    0.0000 H   0  0  0  0  0  0  0  0  0  0  0  0
   11.6671    2.8487    0.0000 H   0  0  0  0  0  0  0  0  0  0  0  0
    1.4631   -4.6950    0.0000 H   0  0  0  0  0  0  0  0  0  0  0  0
    1.6900   -5.5420    0.0000 H   0  0  0  0  0  0  0  0  0  0  0  0
    2.5369   -5.3150    0.0000 H   0  0  0  0  0  0  0  0  0  0  0  0
    2.5369   -2.9630    0.0000 H   0  0  0  0  0  0  0  0  0  0  0  0
    1.6900   -2.7360    0.0000 H   0  0  0  0  0  0  0  0  0  0  0  0
    1.4631   -3.5830    0.0000 H   0  0  0  0  0  0  0  0  0  0  0  0
    9.5033    5.2603    0.0000 H   0  0  0  0  0  0  0  0  0  0  0  0
   12.1704    4.3886    0.0000 H   0  0  0  0  0  0  0  0  0  0  0  0
   11.0885    5.5943    0.0000 H   0  0  0  0  0  0  0  0  0  0  0  0
  1  3  1  0  0  0  0
  1  5  1  0  0  0  0
  1  6  1  0  0  0  0
  1  7  2  0  0  0  0
  2 19  1  0  0  0  0
  2 21  1  0  0  0  0
  3 18  1  0  0  0  0
 20  4  1  6  0  0  0
  4 26  1  0  0  0  0
  5 22  1  0  0  0  0
  6 27  1  0  0  0  0
  8 26  1  0  0  0  0
  8 33  1  0  0  0  0
  9 26  2  0  0  0  0
 10 29  1  0  0  0  0
 10 36  1  0  0  0  0
 11 34  1  0  0  0  0
 11 37  1  0  0  0  0
 12 34  2  0  0  0  0
 21 13  1  6  0  0  0
 13 23  1  0  0  0  0
 13 24  1  0  0  0  0
 14 24  2  0  0  0  0
 14 25  1  0  0  0  0
 15 23  1  0  0  0  0
 15 31  2  0  0  0  0
 16 29  2  0  0  0  0
 16 31  1  0  0  0  0
 17 31  1  0  0  0  0
 17 62  1  0  0  0  0
 17 63  1  0  0  0  0
 18 19  1  0  0  0  0
 18 20  1  0  0  0  0
 18 45  1  6  0  0  0
 19 22  1  0  0  0  0
 19 46  1  1  0  0  0
 20 21  1  0  0  0  0
 20 47  1  0  0  0  0
 21 48  1  0  0  0  0
 22 49  1  0  0  0  0
 22 50  1  0  0  0  0
 23 25  2  0  0  0  0
 24 51  1  0  0  0  0
 25 29  1  0  0  0  0
 27 28  1  0  0  0  0
 27 52  1  0  0  0  0
 27 53  1  0  0  0  0
 28 30  1  0  0  0  0
 28 54  1  0  0  0  0
 28 55  1  0  0  0  0
 30 32  1  1  0  0  0
 30 34  1  0  0  0  0
 30 56  1  0  0  0  0
 32 57  1  0  0  0  0
 32 58  1  0  0  0  0
 32 59  1  0  0  0  0
 33 35  1  0  0  0  0
 33 60  1  0  0  0  0
 33 61  1  0  0  0  0
 35 38  2  0  0  0  0
 35 39  1  0  0  0  0
 36 64  1  0  0  0  0
 36 65  1  0  0  0  0
 36 66  1  0  0  0  0
 37 40  1  0  0  0  0
 37 41  1  0  0  0  0
 37 67  1  0  0  0  0
 38 42  1  0  0  0  0
 38 68  1  0  0  0  0
 39 43  2  0  0  0  0
 39 69  1  0  0  0  0
 40 70  1  0  0  0  0
 40 71  1  0  0  0  0
 40 72  1  0  0  0  0
 41 73  1  0  0  0  0
 41 74  1  0  0  0  0
 41 75  1  0  0  0  0
 42 44  2  0  0  0  0
 42 76  1  0  0  0  0
 43 44  1  0  0  0  0
 43 77  1  0  0  0  0
 44 78  1  0  0  0  0
M  END
> <PUBCHEM_COMPOUND_CID>
134534555

> <PUBCHEM_COMPOUND_CANONICALIZED>
1

> <PUBCHEM_CACTVS_COMPLEXITY>
1040

> <PUBCHEM_CACTVS_HBOND_ACCEPTOR>
15

> <PUBCHEM_CACTVS_HBOND_DONOR>
1

> <PUBCHEM_CACTVS_ROTATABLE_BOND>
14

> <PUBCHEM_CACTVS_SUBSKEYS>
AAADcfB7vAIAAAAAAAAAAAAAAAAAAWJAAAA8SIAAAAAAAFgB/AAAHgAQACAADRzhnwY3/L9MFRCoQybzbISCiC0xcKAJ2CEtXJifbjLE+Vi/NCgvwAveqCfy8CIOAAAAAAAAAAAAAAAAAAAAAAAAAAAAAA==

> <PUBCHEM_IUPAC_OPENEYE_NAME>
isopropyl (2R)-4-[[(4aR,6R,7S,7aR)-6-(2-amino-6-methoxy-purin-9-yl)-7-benzyloxycarbonyloxy-2-oxo-4a,6,7,7a-tetrahydro-4H-furo[3,2-d][1,3,2]dioxaphosphinin-2-yl]oxy]-2-methyl-butanoate

> <PUBCHEM_IUPAC_CAS_NAME>
(2R)-4-[[(4aR,6R,7S,7aR)-6-(2-amino-6-methoxy-9-purinyl)-2-oxo-7-phenylmethoxycarbonyloxy-4a,6,7,7a-tetrahydro-4H-furo[3,2-d][1,3,2]dioxaphosphorin-2-yl]oxy]-2-methylbutanoic acid propan-2-yl ester

> <PUBCHEM_IUPAC_NAME_MARKUP>
propan-2-yl (2<I>R</I>)-4-[[(4<I>a</I><I>R</I>,6<I>R</I>,7<I>S</I>,7<I>a</I><I>R</I>)-6-(2-amino-6-methoxypurin-9-yl)-2-oxo-7-phenylmethoxycarbonyloxy-4<I>a</I>,6,7,7<I>a</I>-tetrahydro-4<I>H</I>-furo[3,2-d][1,3,2]dioxaphosphinin-2-yl]oxy]-2-methylbutanoate

> <PUBCHEM_IUPAC_NAME>
propan-2-yl (2R)-4-[[(4aR,6R,7S,7aR)-6-(2-amino-6-methoxypurin-9-yl)-2-oxo-7-phenylmethoxycarbonyloxy-4a,6,7,7a-tetrahydro-4H-furo[3,2-d][1,3,2]dioxaphosphinin-2-yl]oxy]-2-methylbutanoate

> <PUBCHEM_IUPAC_SYSTEMATIC_NAME>
propan-2-yl (2R)-4-[[(4aR,6R,7S,7aR)-6-(2-azanyl-6-methoxy-purin-9-yl)-2-oxidanylidene-7-phenylmethoxycarbonyloxy-4a,6,7,7a-tetrahydro-4H-furo[3,2-d][1,3,2]dioxaphosphinin-2-yl]oxy]-2-methyl-butanoate

> <PUBCHEM_IUPAC_TRADITIONAL_NAME>
(2R)-4-[[(4aR,6R,7S,7aR)-6-(2-amino-6-methoxy-purin-9-yl)-7-carbobenzoxyoxy-2-keto-4a,6,7,7a-tetrahydro-4H-furo[3,2-d][1,3,2]dioxaphosphorin-2-yl]oxy]-2-methyl-butyric acid isopropyl ester

> <PUBCHEM_IUPAC_INCHI>
InChI=1S/C27H34N5O11P/c1-15(2)40-25(33)16(3)10-11-38-44(35)39-13-18-20(43-44)21(42-27(34)37-12-17-8-6-5-7-9-17)24(41-18)32-14-29-19-22(32)30-26(28)31-23(19)36-4/h5-9,14-16,18,20-21,24H,10-13H2,1-4H3,(H2,28,30,31)/t16-,18-,20-,21+,24-,44?/m1/s1

> <PUBCHEM_IUPAC_INCHIKEY>
GXPFNFRBKJKEBP-ZVPAUURCSA-N

> <PUBCHEM_XLOGP3_AA>
2.3

> <PUBCHEM_EXACT_MASS>
635.19924392

> <PUBCHEM_MOLECULAR_FORMULA>
C27H34N5O11P

> <PUBCHEM_MOLECULAR_WEIGHT>
635.6

> <PUBCHEM_OPENEYE_CAN_SMILES>
CC(C)OC(=O)C(C)CCOP1(=O)OCC2C(O1)C(C(O2)N3C=NC4=C3N=C(N=C4OC)N)OC(=O)OCC5=CC=CC=C5

> <PUBCHEM_OPENEYE_ISO_SMILES>
C[C@H](CCOP1(=O)OC[C@@H]2[C@@H](O1)[C@@H]([C@@H](O2)N3C=NC4=C3N=C(N=C4OC)N)OC(=O)OCC5=CC=CC=C5)C(=O)OC(C)C

> <PUBCHEM_CACTVS_TPSA>
195

> <PUBCHEM_MONOISOTOPIC_WEIGHT>
635.19924392

> <PUBCHEM_TOTAL_CHARGE>
0

> <PUBCHEM_HEAVY_ATOM_COUNT>
44

> <PUBCHEM_ATOM_DEF_STEREO_COUNT>
5

> <PUBCHEM_ATOM_UDEF_STEREO_COUNT>
1

> <PUBCHEM_BOND_DEF_STEREO_COUNT>
0

> <PUBCHEM_BOND_UDEF_STEREO_COUNT>
0

> <PUBCHEM_ISOTOPIC_ATOM_COUNT>
0

> <PUBCHEM_COMPONENT_COUNT>
1

> <PUBCHEM_CACTVS_TAUTO_COUNT>
-1

> <PUBCHEM_COORDINATE_TYPE>
1
5
255

> <PUBCHEM_BONDANNOTATIONS>
1  6  3
21  13  6
13  23  8
13  24  8
14  24  8
14  25  8
15  23  8
15  31  8
16  29  8
16  31  8
18  45  6
19  46  5
23  25  8
25  29  8
30  32  5
35  38  8
35  39  8
38  42  8
39  43  8
20  4  6
42  44  8
43  44  8

$$$$
