 
  -OEChem-10192103542D

 66 67  0     1  0  0  0  0  0999 V2000
    6.4103   -1.1038    0.0000 O   0  0  0  0  0  0  0  0  0  0  0  0
    4.5981    1.7010    0.0000 O   0  0  0  0  0  0  0  0  0  0  0  0
    4.5981   -2.2990    0.0000 O   0  0  0  0  0  0  0  0  0  0  0  0
    3.0893   -0.5651    0.0000 O   0  0  0  0  0  0  0  0  0  0  0  0
    3.1164   -0.0110    0.0000 O   0  0  0  0  0  0  0  0  0  0  0  0
    2.8660   -2.2990    0.0000 O   0  0  0  0  0  0  0  0  0  0  0  0
    7.9939   -0.2990    0.0000 O   0  0  0  0  0  0  0  0  0  0  0  0
    6.0981    2.5670    0.0000 O   0  0  0  0  0  0  0  0  0  0  0  0
    6.3301   -2.2990    0.0000 O   0  0  0  0  0  0  0  0  0  0  0  0
    5.4641    0.2010    0.0000 C   0  0  1  0  0  0  0  0  0  0  0  0
    5.4641   -0.7990    0.0000 C   0  0  1  0  0  0  0  0  0  0  0  0
    4.5981    0.7010    0.0000 C   0  0  2  0  0  0  0  0  0  0  0  0
    4.5981   -1.2990    0.0000 C   0  0  2  0  0  0  0  0  0  0  0  0
    3.7320    0.2010    0.0000 C   0  0  1  0  0  0  0  0  0  0  0  0
    2.8660    0.7010    0.0000 C   0  0  1  0  0  0  0  0  0  0  0  0
    3.7320   -0.7990    0.0000 C   0  0  2  0  0  0  0  0  0  0  0  0
    6.4103    0.5057    0.0000 C   0  0  0  0  0  0  0  0  0  0  0  0
    2.0000    0.2010    0.0000 C   0  0  0  0  0  0  0  0  0  0  0  0
    2.0000   -0.7990    0.0000 C   0  0  0  0  0  0  0  0  0  0  0  0
    2.8660   -1.2990    0.0000 C   0  0  0  0  0  0  0  0  0  0  0  0
    6.9939   -0.2990    0.0000 C   0  0  0  0  0  0  0  0  0  0  0  0
    2.8660    1.7010    0.0000 C   0  0  0  0  0  0  0  0  0  0  0  0
    4.5801   -0.2691    0.0000 C   0  0  0  0  0  0  0  0  0  0  0  0
    7.1546    1.1735    0.0000 C   0  0  0  0  0  0  0  0  0  0  0  0
    5.0981    2.5670    0.0000 C   0  0  0  0  0  0  0  0  0  0  0  0
    5.4641   -2.7990    0.0000 C   0  0  0  0  0  0  0  0  0  0  0  0
    4.5981    3.4330    0.0000 C   0  0  0  0  0  0  0  0  0  0  0  0
    5.4641   -3.7990    0.0000 C   0  0  0  0  0  0  0  0  0  0  0  0
    5.0981    4.2990    0.0000 C   0  0  0  0  0  0  0  0  0  0  0  0
    3.5981    3.4330    0.0000 C   0  0  0  0  0  0  0  0  0  0  0  0
    6.3301   -4.2990    0.0000 C   0  0  0  0  0  0  0  0  0  0  0  0
    4.5981   -4.2990    0.0000 C   0  0  0  0  0  0  0  0  0  0  0  0
    5.5540    1.0462    0.0000 H   0  0  0  0  0  0  0  0  0  0  0  0
    5.5540   -1.6443    0.0000 H   0  0  0  0  0  0  0  0  0  0  0  0
    5.1350    1.0110    0.0000 H   0  0  0  0  0  0  0  0  0  0  0  0
    5.1350   -1.6090    0.0000 H   0  0  0  0  0  0  0  0  0  0  0  0
    4.1306   -0.2740    0.0000 H   0  0  0  0  0  0  0  0  0  0  0  0
    3.4030    1.0110    0.0000 H   0  0  0  0  0  0  0  0  0  0  0  0
    1.7880    0.7836    0.0000 H   0  0  0  0  0  0  0  0  0  0  0  0
    1.3894    0.0933    0.0000 H   0  0  0  0  0  0  0  0  0  0  0  0
    1.3894   -0.6914    0.0000 H   0  0  0  0  0  0  0  0  0  0  0  0
    1.7880   -1.3816    0.0000 H   0  0  0  0  0  0  0  0  0  0  0  0
    3.4860    1.7010    0.0000 H   0  0  0  0  0  0  0  0  0  0  0  0
    2.8660    2.3210    0.0000 H   0  0  0  0  0  0  0  0  0  0  0  0
    2.2460    1.7010    0.0000 H   0  0  0  0  0  0  0  0  0  0  0  0
    4.9086   -0.7949    0.0000 H   0  0  0  0  0  0  0  0  0  0  0  0
    5.1059    0.0594    0.0000 H   0  0  0  0  0  0  0  0  0  0  0  0
    4.2516    0.2567    0.0000 H   0  0  0  0  0  0  0  0  0  0  0  0
    2.4787   -0.4575    0.0000 H   0  0  0  0  0  0  0  0  0  0  0  0
    3.3486    0.5638    0.0000 H   0  0  0  0  0  0  0  0  0  0  0  0
    7.7440    0.9809    0.0000 H   0  0  0  0  0  0  0  0  0  0  0  0
    7.0268    1.7802    0.0000 H   0  0  0  0  0  0  0  0  0  0  0  0
    4.2881    3.9700    0.0000 H   0  0  0  0  0  0  0  0  0  0  0  0
    5.4641   -4.4190    0.0000 H   0  0  0  0  0  0  0  0  0  0  0  0
    5.6350    3.9890    0.0000 H   0  0  0  0  0  0  0  0  0  0  0  0
    5.4081    4.8360    0.0000 H   0  0  0  0  0  0  0  0  0  0  0  0
    4.5611    4.6090    0.0000 H   0  0  0  0  0  0  0  0  0  0  0  0
    3.5981    4.0530    0.0000 H   0  0  0  0  0  0  0  0  0  0  0  0
    2.9781    3.4330    0.0000 H   0  0  0  0  0  0  0  0  0  0  0  0
    3.5981    2.8130    0.0000 H   0  0  0  0  0  0  0  0  0  0  0  0
    6.0201   -4.8360    0.0000 H   0  0  0  0  0  0  0  0  0  0  0  0
    6.8671   -4.6090    0.0000 H   0  0  0  0  0  0  0  0  0  0  0  0
    6.6401   -3.7621    0.0000 H   0  0  0  0  0  0  0  0  0  0  0  0
    4.2881   -3.7621    0.0000 H   0  0  0  0  0  0  0  0  0  0  0  0
    4.0611   -4.6090    0.0000 H   0  0  0  0  0  0  0  0  0  0  0  0
    4.9081   -4.8360    0.0000 H   0  0  0  0  0  0  0  0  0  0  0  0
  1 11  1  0  0  0  0
  1 21  1  0  0  0  0
 12  2  1  6  0  0  0
  2 25  1  0  0  0  0
 13  3  1  1  0  0  0
  3 26  1  0  0  0  0
 14  4  1  6  0  0  0
  4 49  1  0  0  0  0
 16  5  1  6  0  0  0
  5 50  1  0  0  0  0
  6 20  2  0  0  0  0
  7 21  2  0  0  0  0
  8 25  2  0  0  0  0
  9 26  2  0  0  0  0
 10 11  1  0  0  0  0
 10 12  1  0  0  0  0
 10 17  1  0  0  0  0
 10 33  1  6  0  0  0
 11 13  1  0  0  0  0
 11 34  1  1  0  0  0
 12 14  1  0  0  0  0
 12 35  1  0  0  0  0
 13 16  1  0  0  0  0
 13 36  1  0  0  0  0
 14 15  1  0  0  0  0
 14 37  1  0  0  0  0
 15 18  1  0  0  0  0
 15 22  1  1  0  0  0
 15 38  1  0  0  0  0
 16 20  1  0  0  0  0
 16 23  1  0  0  0  0
 17 21  1  0  0  0  0
 17 24  2  0  0  0  0
 18 19  1  0  0  0  0
 18 39  1  0  0  0  0
 18 40  1  0  0  0  0
 19 20  1  0  0  0  0
 19 41  1  0  0  0  0
 19 42  1  0  0  0  0
 22 43  1  0  0  0  0
 22 44  1  0  0  0  0
 22 45  1  0  0  0  0
 23 46  1  0  0  0  0
 23 47  1  0  0  0  0
 23 48  1  0  0  0  0
 24 51  1  0  0  0  0
 24 52  1  0  0  0  0
 25 27  1  0  0  0  0
 26 28  1  0  0  0  0
 27 29  1  0  0  0  0
 27 30  1  0  0  0  0
 27 53  1  0  0  0  0
 28 31  1  0  0  0  0
 28 32  1  0  0  0  0
 28 54  1  0  0  0  0
 29 55  1  0  0  0  0
 29 56  1  0  0  0  0
 29 57  1  0  0  0  0
 30 58  1  0  0  0  0
 30 59  1  0  0  0  0
 30 60  1  0  0  0  0
 31 61  1  0  0  0  0
 31 62  1  0  0  0  0
 31 63  1  0  0  0  0
 32 64  1  0  0  0  0
 32 65  1  0  0  0  0
 32 66  1  0  0  0  0
M  END
> <PUBCHEM_COMPOUND_CID>
16681337

> <PUBCHEM_COMPOUND_CANONICALIZED>
1

> <PUBCHEM_CACTVS_COMPLEXITY>
786

> <PUBCHEM_CACTVS_HBOND_ACCEPTOR>
9

> <PUBCHEM_CACTVS_HBOND_DONOR>
2

> <PUBCHEM_CACTVS_ROTATABLE_BOND>
6

> <PUBCHEM_CACTVS_SUBSKEYS>
AAADcfB4PAAAAAAAAAAAAAAAAAAAASAAAAAAAAAAAAAAAADAAAAAGgAACAAADVSggAICCAAABgCIAoDSCAIAAAAgAAAAAAFAAEgBFBYAIQACQAAF4AADIIHK7PzOAAAAAAAAAAAAAAAAAAAAAAAAAAAAAA==

> <PUBCHEM_IUPAC_OPENEYE_NAME>
[(3aR,4R,5R,6R,10R,11R,11aS)-5,10-dihydroxy-6,10-dimethyl-3-methylene-11-(2-methylpropanoyloxy)-2,9-dioxo-3a,4,5,6,7,8,11,11a-octahydrocyclodeca[b]furan-4-yl] 2-methylpropanoate

> <PUBCHEM_IUPAC_CAS_NAME>
2-methylpropanoic acid [(3aR,4R,5R,6R,10R,11R,11aS)-5,10-dihydroxy-6,10-dimethyl-3-methylene-11-(2-methyl-1-oxopropoxy)-2,9-dioxo-3a,4,5,6,7,8,11,11a-octahydrocyclodeca[b]furan-4-yl] ester

> <PUBCHEM_IUPAC_NAME_MARKUP>
[(3<I>a</I><I>R</I>,4<I>R</I>,5<I>R</I>,6<I>R</I>,10<I>R</I>,11<I>R</I>,11<I>a</I><I>S</I>)-5,10-dihydroxy-6,10-dimethyl-3-methylidene-11-(2-methylpropanoyloxy)-2,9-dioxo-3<I>a</I>,4,5,6,7,8,11,11<I>a</I>-octahydrocyclodeca[b]furan-4-yl] 2-methylpropanoate

> <PUBCHEM_IUPAC_NAME>
[(3aR,4R,5R,6R,10R,11R,11aS)-5,10-dihydroxy-6,10-dimethyl-3-methylidene-11-(2-methylpropanoyloxy)-2,9-dioxo-3a,4,5,6,7,8,11,11a-octahydrocyclodeca[b]furan-4-yl] 2-methylpropanoate

> <PUBCHEM_IUPAC_SYSTEMATIC_NAME>
[(3aR,4R,5R,6R,10R,11R,11aS)-6,10-dimethyl-3-methylidene-11-(2-methylpropanoyloxy)-5,10-bis(oxidanyl)-2,9-bis(oxidanylidene)-3a,4,5,6,7,8,11,11a-octahydrocyclodeca[b]furan-4-yl] 2-methylpropanoate

> <PUBCHEM_IUPAC_TRADITIONAL_NAME>
2-methylpropionic acid [(3aR,4R,5R,6R,10R,11R,11aS)-5,10-dihydroxy-11-isobutyryloxy-2,9-diketo-6,10-dimethyl-3-methylene-3a,4,5,6,7,8,11,11a-octahydrocyclodeca[b]furan-4-yl] ester

> <PUBCHEM_IUPAC_INCHI>
InChI=1S/C23H34O9/c1-10(2)20(26)30-17-15-13(6)22(28)31-18(15)19(32-21(27)11(3)4)23(7,29)14(24)9-8-12(5)16(17)25/h10-12,15-19,25,29H,6,8-9H2,1-5,7H3/t12-,15-,16-,17-,18+,19-,23+/m1/s1

> <PUBCHEM_IUPAC_INCHIKEY>
WTBKTSVQJQEIHA-DQWWWAKVSA-N

> <PUBCHEM_XLOGP3_AA>
2.2

> <PUBCHEM_EXACT_MASS>
454.22028266

> <PUBCHEM_MOLECULAR_FORMULA>
C23H34O9

> <PUBCHEM_MOLECULAR_WEIGHT>
454.5

> <PUBCHEM_OPENEYE_CAN_SMILES>
CC1CCC(=O)C(C(C2C(C(C1O)OC(=O)C(C)C)C(=C)C(=O)O2)OC(=O)C(C)C)(C)O

> <PUBCHEM_OPENEYE_ISO_SMILES>
C[C@@H]1CCC(=O)[C@]([C@@H]([C@@H]2[C@@H]([C@H]([C@@H]1O)OC(=O)C(C)C)C(=C)C(=O)O2)OC(=O)C(C)C)(C)O

> <PUBCHEM_CACTVS_TPSA>
136

> <PUBCHEM_MONOISOTOPIC_WEIGHT>
454.22028266

> <PUBCHEM_TOTAL_CHARGE>
0

> <PUBCHEM_HEAVY_ATOM_COUNT>
32

> <PUBCHEM_ATOM_DEF_STEREO_COUNT>
7

> <PUBCHEM_ATOM_UDEF_STEREO_COUNT>
0

> <PUBCHEM_BOND_DEF_STEREO_COUNT>
0

> <PUBCHEM_BOND_UDEF_STEREO_COUNT>
0

> <PUBCHEM_ISOTOPIC_ATOM_COUNT>
0

> <PUBCHEM_COMPONENT_COUNT>
1

> <PUBCHEM_CACTVS_TAUTO_COUNT>
-1

> <PUBCHEM_COORDINATE_TYPE>
1
5
255

> <PUBCHEM_BONDANNOTATIONS>
10  33  6
11  34  5
15  22  5
12  2  6
13  3  5
14  4  6
16  5  6

$$$$
