 
  -OEChem-10192103502D

 60 62  0     1  0  0  0  0  0999 V2000
    6.6036   -2.3450    0.0000 O   0  0  0  0  0  0  0  0  0  0  0  0
    5.6331   -0.8505    0.0000 O   0  0  0  0  0  0  0  0  0  0  0  0
    8.3357   -0.3450    0.0000 O   0  0  0  0  0  0  0  0  0  0  0  0
    3.2889   -1.0086    0.0000 O   0  0  0  0  0  0  0  0  0  0  0  0
    4.6162   -3.2299    0.0000 O   0  0  0  0  0  0  0  0  0  0  0  0
    8.3357   -3.3450    0.0000 O   0  0  0  0  0  0  0  0  0  0  0  0
   10.0678   -2.3450    0.0000 O   0  0  0  0  0  0  0  0  0  0  0  0
   10.0678   -0.3450    0.0000 O   0  0  0  0  0  0  0  0  0  0  0  0
    2.4608   -1.8687    0.0000 O   0  0  0  0  0  0  0  0  0  0  0  0
    6.6036    0.6550    0.0000 O   0  0  0  0  0  0  0  0  0  0  0  0
   11.7998    0.6550    0.0000 O   0  0  0  0  0  0  0  0  0  0  0  0
   11.7998    2.6550    0.0000 O   0  0  0  0  0  0  0  0  0  0  0  0
    8.3357    2.6550    0.0000 O   0  0  0  0  0  0  0  0  0  0  0  0
    7.4697   -1.8450    0.0000 C   0  0  1  0  0  0  0  0  0  0  0  0
    4.1550   -1.5086    0.0000 C   0  0  1  0  0  0  0  0  0  0  0  0
    4.8241   -2.2517    0.0000 C   0  0  2  0  0  0  0  0  0  0  0  0
    8.3357   -2.3450    0.0000 C   0  0  1  0  0  0  0  0  0  0  0  0
    5.7376   -1.8450    0.0000 C   0  0  2  0  0  0  0  0  0  0  0  0
    7.4697   -0.8450    0.0000 C   0  0  1  0  0  0  0  0  0  0  0  0
    9.2017   -1.8450    0.0000 C   0  0  2  0  0  0  0  0  0  0  0  0
    4.6550   -0.6426    0.0000 C   0  0  0  0  0  0  0  0  0  0  0  0
    9.2017   -0.8450    0.0000 C   0  0  1  0  0  0  0  0  0  0  0  0
    3.4118   -2.1777    0.0000 C   0  0  0  0  0  0  0  0  0  0  0  0
    6.6036   -0.3450    0.0000 C   0  0  0  0  0  0  0  0  0  0  0  0
   10.0678    0.6550    0.0000 C   0  0  0  0  0  0  0  0  0  0  0  0
   10.9338    1.1550    0.0000 C   0  0  0  0  0  0  0  0  0  0  0  0
    9.2017    1.1550    0.0000 C   0  0  0  0  0  0  0  0  0  0  0  0
   10.9338    2.1550    0.0000 C   0  0  0  0  0  0  0  0  0  0  0  0
    9.2017    2.1550    0.0000 C   0  0  0  0  0  0  0  0  0  0  0  0
   10.0678    2.6550    0.0000 C   0  0  0  0  0  0  0  0  0  0  0  0
   12.6658    1.1550    0.0000 C   0  0  0  0  0  0  0  0  0  0  0  0
   11.7998    3.6550    0.0000 C   0  0  0  0  0  0  0  0  0  0  0  0
    7.4697   -2.4650    0.0000 H   0  0  0  0  0  0  0  0  0  0  0  0
    5.3059   -2.6419    0.0000 H   0  0  0  0  0  0  0  0  0  0  0  0
    7.7988   -2.6550    0.0000 H   0  0  0  0  0  0  0  0  0  0  0  0
    5.7052   -2.4642    0.0000 H   0  0  0  0  0  0  0  0  0  0  0  0
    7.4697   -0.2250    0.0000 H   0  0  0  0  0  0  0  0  0  0  0  0
    9.2017   -2.4650    0.0000 H   0  0  0  0  0  0  0  0  0  0  0  0
    4.8465   -0.0529    0.0000 H   0  0  0  0  0  0  0  0  0  0  0  0
    4.0886   -0.3904    0.0000 H   0  0  0  0  0  0  0  0  0  0  0  0
    9.2017   -0.2250    0.0000 H   0  0  0  0  0  0  0  0  0  0  0  0
    3.1207   -2.7252    0.0000 H   0  0  0  0  0  0  0  0  0  0  0  0
    3.9004   -2.5594    0.0000 H   0  0  0  0  0  0  0  0  0  0  0  0
    5.9931   -0.2373    0.0000 H   0  0  0  0  0  0  0  0  0  0  0  0
    6.3916   -0.9276    0.0000 H   0  0  0  0  0  0  0  0  0  0  0  0
    3.2889   -0.3886    0.0000 H   0  0  0  0  0  0  0  0  0  0  0  0
    8.8726   -3.6550    0.0000 H   0  0  0  0  0  0  0  0  0  0  0  0
    5.0769   -3.6448    0.0000 H   0  0  0  0  0  0  0  0  0  0  0  0
   10.6047   -2.0350    0.0000 H   0  0  0  0  0  0  0  0  0  0  0  0
    2.0000   -2.2836    0.0000 H   0  0  0  0  0  0  0  0  0  0  0  0
    6.0667    0.9650    0.0000 H   0  0  0  0  0  0  0  0  0  0  0  0
    8.6648    0.8450    0.0000 H   0  0  0  0  0  0  0  0  0  0  0  0
   10.0678    3.2750    0.0000 H   0  0  0  0  0  0  0  0  0  0  0  0
   12.9758    0.6181    0.0000 H   0  0  0  0  0  0  0  0  0  0  0  0
   13.2028    1.4650    0.0000 H   0  0  0  0  0  0  0  0  0  0  0  0
   12.3558    1.6919    0.0000 H   0  0  0  0  0  0  0  0  0  0  0  0
    8.3357    3.2750    0.0000 H   0  0  0  0  0  0  0  0  0  0  0  0
   12.4198    3.6550    0.0000 H   0  0  0  0  0  0  0  0  0  0  0  0
   11.7998    4.2750    0.0000 H   0  0  0  0  0  0  0  0  0  0  0  0
   11.1798    3.6550    0.0000 H   0  0  0  0  0  0  0  0  0  0  0  0
 14  1  1  6  0  0  0
 18  1  1  1  0  0  0
  2 18  1  0  0  0  0
  2 21  1  0  0  0  0
  3 19  1  0  0  0  0
  3 22  1  0  0  0  0
 15  4  1  6  0  0  0
  4 46  1  0  0  0  0
 16  5  1  6  0  0  0
  5 48  1  0  0  0  0
 17  6  1  1  0  0  0
  6 47  1  0  0  0  0
 20  7  1  6  0  0  0
  7 49  1  0  0  0  0
 22  8  1  1  0  0  0
  8 25  1  0  0  0  0
  9 23  1  0  0  0  0
  9 50  1  0  0  0  0
 10 24  1  0  0  0  0
 10 51  1  0  0  0  0
 11 26  1  0  0  0  0
 11 31  1  0  0  0  0
 12 28  1  0  0  0  0
 12 32  1  0  0  0  0
 13 29  1  0  0  0  0
 13 57  1  0  0  0  0
 14 17  1  0  0  0  0
 14 19  1  0  0  0  0
 14 33  1  0  0  0  0
 15 16  1  0  0  0  0
 15 21  1  0  0  0  0
 15 23  1  0  0  0  0
 16 18  1  0  0  0  0
 16 34  1  0  0  0  0
 17 20  1  0  0  0  0
 17 35  1  0  0  0  0
 18 36  1  0  0  0  0
 19 24  1  1  0  0  0
 19 37  1  0  0  0  0
 20 22  1  0  0  0  0
 20 38  1  0  0  0  0
 21 39  1  0  0  0  0
 21 40  1  0  0  0  0
 22 41  1  0  0  0  0
 23 42  1  0  0  0  0
 23 43  1  0  0  0  0
 24 44  1  0  0  0  0
 24 45  1  0  0  0  0
 25 26  1  0  0  0  0
 25 27  2  0  0  0  0
 26 28  2  0  0  0  0
 27 29  1  0  0  0  0
 27 52  1  0  0  0  0
 28 30  1  0  0  0  0
 29 30  2  0  0  0  0
 30 53  1  0  0  0  0
 31 54  1  0  0  0  0
 31 55  1  0  0  0  0
 31 56  1  0  0  0  0
 32 58  1  0  0  0  0
 32 59  1  0  0  0  0
 32 60  1  0  0  0  0
M  END
> <PUBCHEM_COMPOUND_CID>
51136396

> <PUBCHEM_COMPOUND_CANONICALIZED>
1

> <PUBCHEM_CACTVS_COMPLEXITY>
596

> <PUBCHEM_CACTVS_HBOND_ACCEPTOR>
13

> <PUBCHEM_CACTVS_HBOND_DONOR>
7

> <PUBCHEM_CACTVS_ROTATABLE_BOND>
8

> <PUBCHEM_CACTVS_SUBSKEYS>
AAADceB4PAAAAAAAAAAAAAAAAAAAASAAAAA0QAAAAAAAAAABAAAAGgAACAAADFSwkAMyDoAABgCAACBCAAACCAAgIAAAiAAGiIgdNyKGMRqieCKlwBUPuAfAYAwIAQAACAAAQAACAAAQAACAAAAAAAAAAA==

> <PUBCHEM_IUPAC_OPENEYE_NAME>
(2S,3R,4R,5S,6R)-5-[(2S,3R,4R)-3,4-dihydroxy-4-(hydroxymethyl)tetrahydrofuran-2-yl]oxy-2-(5-hydroxy-2,3-dimethoxy-phenoxy)-6-(hydroxymethyl)tetrahydropyran-3,4-diol

> <PUBCHEM_IUPAC_CAS_NAME>
(2S,3R,4R,5S,6R)-5-[[(2S,3R,4R)-3,4-dihydroxy-4-(hydroxymethyl)-2-oxolanyl]oxy]-2-(5-hydroxy-2,3-dimethoxyphenoxy)-6-(hydroxymethyl)oxane-3,4-diol

> <PUBCHEM_IUPAC_NAME_MARKUP>
(2<I>S</I>,3<I>R</I>,4<I>R</I>,5<I>S</I>,6<I>R</I>)-5-[(2<I>S</I>,3<I>R</I>,4<I>R</I>)-3,4-dihydroxy-4-(hydroxymethyl)oxolan-2-yl]oxy-2-(5-hydroxy-2,3-dimethoxyphenoxy)-6-(hydroxymethyl)oxane-3,4-diol

> <PUBCHEM_IUPAC_NAME>
(2S,3R,4R,5S,6R)-5-[(2S,3R,4R)-3,4-dihydroxy-4-(hydroxymethyl)oxolan-2-yl]oxy-2-(5-hydroxy-2,3-dimethoxyphenoxy)-6-(hydroxymethyl)oxane-3,4-diol

> <PUBCHEM_IUPAC_SYSTEMATIC_NAME>
(2S,3R,4R,5S,6R)-2-(2,3-dimethoxy-5-oxidanyl-phenoxy)-6-(hydroxymethyl)-5-[(2S,3R,4R)-4-(hydroxymethyl)-3,4-bis(oxidanyl)oxolan-2-yl]oxy-oxane-3,4-diol

> <PUBCHEM_IUPAC_TRADITIONAL_NAME>
(2S,3R,4R,5S,6R)-5-[(2S,3R,4R)-3,4-dihydroxy-4-methylol-tetrahydrofuran-2-yl]oxy-2-(5-hydroxy-2,3-dimethoxy-phenoxy)-6-methylol-tetrahydropyran-3,4-diol

> <PUBCHEM_IUPAC_INCHI>
InChI=1S/C19H28O13/c1-27-9-3-8(22)4-10(14(9)28-2)30-17-13(24)12(23)15(11(5-20)31-17)32-18-16(25)19(26,6-21)7-29-18/h3-4,11-13,15-18,20-26H,5-7H2,1-2H3/t11-,12-,13-,15-,16+,17-,18+,19-/m1/s1

> <PUBCHEM_IUPAC_INCHIKEY>
BQJJPVDDTHRUBT-DGBPOTMESA-N

> <PUBCHEM_XLOGP3_AA>
-2.4

> <PUBCHEM_EXACT_MASS>
464.15299094

> <PUBCHEM_MOLECULAR_FORMULA>
C19H28O13

> <PUBCHEM_MOLECULAR_WEIGHT>
464.4

> <PUBCHEM_OPENEYE_CAN_SMILES>
COC1=C(C(=CC(=C1)O)OC2C(C(C(C(O2)CO)OC3C(C(CO3)(CO)O)O)O)O)OC

> <PUBCHEM_OPENEYE_ISO_SMILES>
COC1=C(C(=CC(=C1)O)O[C@H]2[C@@H]([C@H]([C@@H]([C@H](O2)CO)O[C@H]3[C@@H]([C@](CO3)(CO)O)O)O)O)OC

> <PUBCHEM_CACTVS_TPSA>
197

> <PUBCHEM_MONOISOTOPIC_WEIGHT>
464.15299094

> <PUBCHEM_TOTAL_CHARGE>
0

> <PUBCHEM_HEAVY_ATOM_COUNT>
32

> <PUBCHEM_ATOM_DEF_STEREO_COUNT>
8

> <PUBCHEM_ATOM_UDEF_STEREO_COUNT>
0

> <PUBCHEM_BOND_DEF_STEREO_COUNT>
0

> <PUBCHEM_BOND_UDEF_STEREO_COUNT>
0

> <PUBCHEM_ISOTOPIC_ATOM_COUNT>
0

> <PUBCHEM_COMPONENT_COUNT>
1

> <PUBCHEM_CACTVS_TAUTO_COUNT>
-1

> <PUBCHEM_COORDINATE_TYPE>
1
5
255

> <PUBCHEM_BONDANNOTATIONS>
14  1  6
18  1  5
19  24  5
25  26  8
25  27  8
26  28  8
27  29  8
28  30  8
29  30  8
15  4  6
16  5  6
17  6  5
20  7  6
22  8  5

$$$$
