 
  -OEChem-10192104112D

 98102  0     1  0  0  0  0  0999 V2000
    7.8497   -0.5609    0.0000 O   0  0  0  0  0  0  0  0  0  0  0  0
    8.7157    0.9391    0.0000 O   0  0  0  0  0  0  0  0  0  0  0  0
    6.9836   -3.0609    0.0000 O   0  0  0  0  0  0  0  0  0  0  0  0
    5.2516   -3.0609    0.0000 O   0  0  0  0  0  0  0  0  0  0  0  0
    8.7157   -3.0609    0.0000 O   0  0  0  0  0  0  0  0  0  0  0  0
   10.4478   -2.0609    0.0000 O   0  0  0  0  0  0  0  0  0  0  0  0
   10.4478   -0.0609    0.0000 O   0  0  0  0  0  0  0  0  0  0  0  0
    7.8497    3.1712    0.0000 O   0  0  0  0  0  0  0  0  0  0  0  0
    7.8497    0.4391    0.0000 O   0  0  0  0  0  0  0  0  0  0  0  0
    6.9836   -5.0609    0.0000 O   0  0  0  0  0  0  0  0  0  0  0  0
    5.2516   -6.0609    0.0000 O   0  0  0  0  0  0  0  0  0  0  0  0
    3.5196   -5.0609    0.0000 O   0  0  0  0  0  0  0  0  0  0  0  0
    4.8182    1.4173    0.0000 O   0  0  0  0  0  0  0  0  0  0  0  0
    4.8046    4.9571    0.0000 O   0  0  0  0  0  0  0  0  0  0  0  0
   11.3497    4.0372    0.0000 O   0  0  0  0  0  0  0  0  0  0  0  0
   12.3497    2.3051    0.0000 O   0  0  0  0  0  0  0  0  0  0  0  0
    2.3079    5.8328    0.0000 O   0  0  0  0  0  0  0  0  0  0  0  0
   13.8497    4.9032    0.0000 O   0  0  0  0  0  0  0  0  0  0  0  0
   14.3497    2.3051    0.0000 O   0  0  0  0  0  0  0  0  0  0  0  0
    7.8497   -1.5609    0.0000 C   0  0  1  0  0  0  0  0  0  0  0  0
    8.7157   -2.0609    0.0000 C   0  0  2  0  0  0  0  0  0  0  0  0
    9.5817   -1.5609    0.0000 C   0  0  1  0  0  0  0  0  0  0  0  0
    9.5817   -0.5609    0.0000 C   0  0  2  0  0  0  0  0  0  0  0  0
    8.7157   -0.0609    0.0000 C   0  0  1  0  0  0  0  0  0  0  0  0
    7.8497    1.4391    0.0000 C   0  0  3  0  0  0  0  0  0  0  0  0
    6.9836   -2.0609    0.0000 C   0  0  0  0  0  0  0  0  0  0  0  0
    8.3497    2.3051    0.0000 C   0  0  3  0  0  0  0  0  0  0  0  0
    6.1176   -3.5609    0.0000 C   0  0  2  0  0  0  0  0  0  0  0  0
    6.8497    1.4391    0.0000 C   0  0  0  0  0  0  0  0  0  0  0  0
    6.1176   -4.5609    0.0000 C   0  0  1  0  0  0  0  0  0  0  0  0
    5.2516   -5.0609    0.0000 C   0  0  1  0  0  0  0  0  0  0  0  0
    4.3856   -4.5609    0.0000 C   0  0  2  0  0  0  0  0  0  0  0  0
    4.3856   -3.5609    0.0000 C   0  0  2  0  0  0  0  0  0  0  0  0
    6.3497    2.3051    0.0000 C   0  0  0  0  0  0  0  0  0  0  0  0
    9.3497    2.3051    0.0000 C   0  0  0  0  0  0  0  0  0  0  0  0
    6.8497    3.1712    0.0000 C   0  0  0  0  0  0  0  0  0  0  0  0
    3.5196   -3.0609    0.0000 C   0  0  0  0  0  0  0  0  0  0  0  0
    5.3082    2.2891    0.0000 C   0  0  0  0  0  0  0  0  0  0  0  0
    6.3428    4.0812    0.0000 C   0  0  0  0  0  0  0  0  0  0  0  0
    9.8497    3.1712    0.0000 C   0  0  0  0  0  0  0  0  0  0  0  0
    9.8497    1.4391    0.0000 C   0  0  0  0  0  0  0  0  0  0  0  0
    4.7804    3.1871    0.0000 C   0  0  0  0  0  0  0  0  0  0  0  0
    5.3012    4.0892    0.0000 C   0  0  0  0  0  0  0  0  0  0  0  0
   10.8497    3.1712    0.0000 C   0  0  0  0  0  0  0  0  0  0  0  0
   10.8497    1.4391    0.0000 C   0  0  0  0  0  0  0  0  0  0  0  0
   11.3497    2.3051    0.0000 C   0  0  0  0  0  0  0  0  0  0  0  0
    3.8046    4.9610    0.0000 C   0  0  0  0  0  0  0  0  0  0  0  0
   12.3497    4.0372    0.0000 C   0  0  0  0  0  0  0  0  0  0  0  0
   12.8497    3.1712    0.0000 C   0  0  0  0  0  0  0  0  0  0  0  0
    3.3079    5.8289    0.0000 C   0  0  0  0  0  0  0  0  0  0  0  0
   12.8497    4.9032    0.0000 C   0  0  0  0  0  0  0  0  0  0  0  0
   13.8497    3.1712    0.0000 C   0  0  0  0  0  0  0  0  0  0  0  0
    7.3127   -1.2509    0.0000 H   0  0  0  0  0  0  0  0  0  0  0  0
    9.2526   -2.3709    0.0000 H   0  0  0  0  0  0  0  0  0  0  0  0
   10.1187   -1.2509    0.0000 H   0  0  0  0  0  0  0  0  0  0  0  0
   10.1187   -0.8709    0.0000 H   0  0  0  0  0  0  0  0  0  0  0  0
    9.2526    0.2491    0.0000 H   0  0  0  0  0  0  0  0  0  0  0  0
    6.7716   -1.4783    0.0000 H   0  0  0  0  0  0  0  0  0  0  0  0
    6.3731   -2.1686    0.0000 H   0  0  0  0  0  0  0  0  0  0  0  0
    8.6597    2.8421    0.0000 H   0  0  0  0  0  0  0  0  0  0  0  0
    6.6546   -3.8709    0.0000 H   0  0  0  0  0  0  0  0  0  0  0  0
    6.2671    1.2270    0.0000 H   0  0  0  0  0  0  0  0  0  0  0  0
    6.9573    0.8285    0.0000 H   0  0  0  0  0  0  0  0  0  0  0  0
    6.1176   -5.1809    0.0000 H   0  0  0  0  0  0  0  0  0  0  0  0
    4.7147   -5.3709    0.0000 H   0  0  0  0  0  0  0  0  0  0  0  0
    4.3856   -5.1809    0.0000 H   0  0  0  0  0  0  0  0  0  0  0  0
    4.3856   -2.9409    0.0000 H   0  0  0  0  0  0  0  0  0  0  0  0
    9.2526   -3.3709    0.0000 H   0  0  0  0  0  0  0  0  0  0  0  0
   10.4478   -2.6809    0.0000 H   0  0  0  0  0  0  0  0  0  0  0  0
   10.9847   -0.3709    0.0000 H   0  0  0  0  0  0  0  0  0  0  0  0
    7.3127    0.1291    0.0000 H   0  0  0  0  0  0  0  0  0  0  0  0
    3.8296   -2.5240    0.0000 H   0  0  0  0  0  0  0  0  0  0  0  0
    2.9826   -2.7509    0.0000 H   0  0  0  0  0  0  0  0  0  0  0  0
    3.2096   -3.5978    0.0000 H   0  0  0  0  0  0  0  0  0  0  0  0
    7.5206   -4.7509    0.0000 H   0  0  0  0  0  0  0  0  0  0  0  0
    4.7147   -6.3709    0.0000 H   0  0  0  0  0  0  0  0  0  0  0  0
    6.6590    4.6145    0.0000 H   0  0  0  0  0  0  0  0  0  0  0  0
    9.5397    3.7081    0.0000 H   0  0  0  0  0  0  0  0  0  0  0  0
    2.9826   -4.7509    0.0000 H   0  0  0  0  0  0  0  0  0  0  0  0
    9.5397    0.9022    0.0000 H   0  0  0  0  0  0  0  0  0  0  0  0
    4.1604    3.1847    0.0000 H   0  0  0  0  0  0  0  0  0  0  0  0
   11.1597    0.9022    0.0000 H   0  0  0  0  0  0  0  0  0  0  0  0
    4.1983    1.4101    0.0000 H   0  0  0  0  0  0  0  0  0  0  0  0
    3.2212    4.7512    0.0000 H   0  0  0  0  0  0  0  0  0  0  0  0
    3.9099    4.3500    0.0000 H   0  0  0  0  0  0  0  0  0  0  0  0
   12.2420    3.4266    0.0000 H   0  0  0  0  0  0  0  0  0  0  0  0
   12.9323    3.8251    0.0000 H   0  0  0  0  0  0  0  0  0  0  0  0
   12.9573    3.7817    0.0000 H   0  0  0  0  0  0  0  0  0  0  0  0
   12.2671    3.3832    0.0000 H   0  0  0  0  0  0  0  0  0  0  0  0
    3.8913    6.0387    0.0000 H   0  0  0  0  0  0  0  0  0  0  0  0
    3.2026    6.4399    0.0000 H   0  0  0  0  0  0  0  0  0  0  0  0
   12.9573    5.5138    0.0000 H   0  0  0  0  0  0  0  0  0  0  0  0
   12.2671    5.1152    0.0000 H   0  0  0  0  0  0  0  0  0  0  0  0
   14.4323    3.3832    0.0000 H   0  0  0  0  0  0  0  0  0  0  0  0
   13.7420    3.7817    0.0000 H   0  0  0  0  0  0  0  0  0  0  0  0
    2.0000    6.3709    0.0000 H   0  0  0  0  0  0  0  0  0  0  0  0
   14.1597    5.4401    0.0000 H   0  0  0  0  0  0  0  0  0  0  0  0
   14.9697    2.3051    0.0000 H   0  0  0  0  0  0  0  0  0  0  0  0
  1 20  1  0  0  0  0
  1 24  1  0  0  0  0
 24  2  1  1  0  0  0
  2 25  1  0  0  0  0
  3 26  1  0  0  0  0
 28  3  1  1  0  0  0
  4 28  1  0  0  0  0
  4 33  1  0  0  0  0
 21  5  1  6  0  0  0
  5 68  1  0  0  0  0
 22  6  1  1  0  0  0
  6 69  1  0  0  0  0
 23  7  1  6  0  0  0
  7 70  1  0  0  0  0
  8 27  1  0  0  0  0
  8 36  1  0  0  0  0
  9 25  1  0  0  0  0
  9 71  1  0  0  0  0
 30 10  1  6  0  0  0
 10 75  1  0  0  0  0
 31 11  1  6  0  0  0
 11 76  1  0  0  0  0
 32 12  1  1  0  0  0
 12 79  1  0  0  0  0
 13 38  1  0  0  0  0
 13 83  1  0  0  0  0
 14 43  1  0  0  0  0
 14 47  1  0  0  0  0
 15 44  1  0  0  0  0
 15 48  1  0  0  0  0
 16 46  1  0  0  0  0
 16 49  1  0  0  0  0
 17 50  1  0  0  0  0
 17 96  1  0  0  0  0
 18 51  1  0  0  0  0
 18 97  1  0  0  0  0
 19 52  1  0  0  0  0
 19 98  1  0  0  0  0
 20 21  1  0  0  0  0
 20 26  1  1  0  0  0
 20 53  1  0  0  0  0
 21 22  1  0  0  0  0
 21 54  1  0  0  0  0
 22 23  1  0  0  0  0
 22 55  1  0  0  0  0
 23 24  1  0  0  0  0
 23 56  1  0  0  0  0
 24 57  1  0  0  0  0
 25 27  1  0  0  0  0
 25 29  1  0  0  0  0
 26 58  1  0  0  0  0
 26 59  1  0  0  0  0
 27 35  1  0  0  0  0
 27 60  1  0  0  0  0
 28 30  1  0  0  0  0
 28 61  1  0  0  0  0
 29 34  1  0  0  0  0
 29 62  1  0  0  0  0
 29 63  1  0  0  0  0
 30 31  1  0  0  0  0
 30 64  1  0  0  0  0
 31 32  1  0  0  0  0
 31 65  1  0  0  0  0
 32 33  1  0  0  0  0
 32 66  1  0  0  0  0
 33 37  1  6  0  0  0
 33 67  1  0  0  0  0
 34 36  1  0  0  0  0
 34 38  2  0  0  0  0
 35 40  2  0  0  0  0
 35 41  1  0  0  0  0
 36 39  2  0  0  0  0
 37 72  1  0  0  0  0
 37 73  1  0  0  0  0
 37 74  1  0  0  0  0
 38 42  1  0  0  0  0
 39 43  1  0  0  0  0
 39 77  1  0  0  0  0
 40 44  1  0  0  0  0
 40 78  1  0  0  0  0
 41 45  2  0  0  0  0
 41 80  1  0  0  0  0
 42 43  2  0  0  0  0
 42 81  1  0  0  0  0
 44 46  2  0  0  0  0
 45 46  1  0  0  0  0
 45 82  1  0  0  0  0
 47 50  1  0  0  0  0
 47 84  1  0  0  0  0
 47 85  1  0  0  0  0
 48 51  1  0  0  0  0
 48 86  1  0  0  0  0
 48 87  1  0  0  0  0
 49 52  1  0  0  0  0
 49 88  1  0  0  0  0
 49 89  1  0  0  0  0
 50 90  1  0  0  0  0
 50 91  1  0  0  0  0
 51 92  1  0  0  0  0
 51 93  1  0  0  0  0
 52 94  1  0  0  0  0
 52 95  1  0  0  0  0
M  END
> <PUBCHEM_COMPOUND_CID>
67128025

> <PUBCHEM_COMPOUND_CANONICALIZED>
1

> <PUBCHEM_CACTVS_COMPLEXITY>
1080

> <PUBCHEM_CACTVS_HBOND_ACCEPTOR>
19

> <PUBCHEM_CACTVS_HBOND_DONOR>
11

> <PUBCHEM_CACTVS_ROTATABLE_BOND>
15

> <PUBCHEM_CACTVS_SUBSKEYS>
AAADcfB8PgAAAAAAAAAAAAAAAAAAAAAAAAA0aJECAAAAAACRQAAAGgAACAAADBSwmAMyDoAABgCAAiBCAAACCAAgIAAIiAAGiIgdNyKGMRqieCKlwBUPuAfA4PwOIAABCAAIQABAAAIQABCAAAAAAAAAAA==

> <PUBCHEM_IUPAC_OPENEYE_NAME>
(2R,3R,4R,5R,6S)-2-[[(2R,3S,4S,5R,6S)-6-[2-[3,4-bis(2-hydroxyethoxy)phenyl]-3,5-dihydroxy-7-(2-hydroxyethoxy)chroman-3-yl]oxy-3,4,5-trihydroxy-tetrahydropyran-2-yl]methoxy]-6-methyl-tetrahydropyran-3,4,5-triol

> <PUBCHEM_IUPAC_CAS_NAME>
(2R,3R,4R,5R,6S)-2-[[(2R,3S,4S,5R,6S)-6-[[2-[3,4-bis(2-hydroxyethoxy)phenyl]-3,5-dihydroxy-7-(2-hydroxyethoxy)-3,4-dihydro-2H-1-benzopyran-3-yl]oxy]-3,4,5-trihydroxy-2-oxanyl]methoxy]-6-methyloxane-3,4,5-triol

> <PUBCHEM_IUPAC_NAME_MARKUP>
(2<I>R</I>,3<I>R</I>,4<I>R</I>,5<I>R</I>,6<I>S</I>)-2-[[(2<I>R</I>,3<I>S</I>,4<I>S</I>,5<I>R</I>,6<I>S</I>)-6-[[2-[3,4-bis(2-hydroxyethoxy)phenyl]-3,5-dihydroxy-7-(2-hydroxyethoxy)-2,4-dihydrochromen-3-yl]oxy]-3,4,5-trihydroxyoxan-2-yl]methoxy]-6-methyloxane-3,4,5-triol

> <PUBCHEM_IUPAC_NAME>
(2R,3R,4R,5R,6S)-2-[[(2R,3S,4S,5R,6S)-6-[[2-[3,4-bis(2-hydroxyethoxy)phenyl]-3,5-dihydroxy-7-(2-hydroxyethoxy)-2,4-dihydrochromen-3-yl]oxy]-3,4,5-trihydroxyoxan-2-yl]methoxy]-6-methyloxane-3,4,5-triol

> <PUBCHEM_IUPAC_SYSTEMATIC_NAME>
(2R,3R,4R,5R,6S)-2-[[(2R,3S,4S,5R,6S)-6-[[2-[3,4-bis(2-hydroxyethyloxy)phenyl]-7-(2-hydroxyethyloxy)-3,5-bis(oxidanyl)-2,4-dihydrochromen-3-yl]oxy]-3,4,5-tris(oxidanyl)oxan-2-yl]methoxy]-6-methyl-oxane-3,4,5-triol

> <PUBCHEM_IUPAC_TRADITIONAL_NAME>
(2R,3R,4R,5R,6S)-2-[[(2R,3S,4S,5R,6S)-6-[2-[3,4-bis(2-hydroxyethoxy)phenyl]-3,5-dihydroxy-7-(2-hydroxyethoxy)chroman-3-yl]oxy-3,4,5-trihydroxy-tetrahydropyran-2-yl]methoxy]-6-methyl-tetrahydropyran-3,4,5-triol

> <PUBCHEM_IUPAC_INCHI>
InChI=1S/C33H46O19/c1-15-24(38)26(40)28(42)31(49-15)48-14-23-25(39)27(41)29(43)32(51-23)52-33(44)13-18-19(37)11-17(45-7-4-34)12-21(18)50-30(33)16-2-3-20(46-8-5-35)22(10-16)47-9-6-36/h2-3,10-12,15,23-32,34-44H,4-9,13-14H2,1H3/t15-,23+,24-,25+,26+,27-,28+,29+,30?,31+,32-,33?/m0/s1

> <PUBCHEM_IUPAC_INCHIKEY>
MMFAPQXGYDCDCX-QUEBEGJOSA-N

> <PUBCHEM_XLOGP3_AA>
-3.7

> <PUBCHEM_EXACT_MASS>
746.26332923

> <PUBCHEM_MOLECULAR_FORMULA>
C33H46O19

> <PUBCHEM_MOLECULAR_WEIGHT>
746.7

> <PUBCHEM_OPENEYE_CAN_SMILES>
CC1C(C(C(C(O1)OCC2C(C(C(C(O2)OC3(CC4=C(C=C(C=C4OC3C5=CC(=C(C=C5)OCCO)OCCO)OCCO)O)O)O)O)O)O)O)O

> <PUBCHEM_OPENEYE_ISO_SMILES>
C[C@H]1[C@@H]([C@H]([C@H]([C@@H](O1)OC[C@@H]2[C@H]([C@@H]([C@H]([C@@H](O2)OC3(CC4=C(C=C(C=C4OC3C5=CC(=C(C=C5)OCCO)OCCO)OCCO)O)O)O)O)O)O)O)O

> <PUBCHEM_CACTVS_TPSA>
296

> <PUBCHEM_MONOISOTOPIC_WEIGHT>
746.26332923

> <PUBCHEM_TOTAL_CHARGE>
0

> <PUBCHEM_HEAVY_ATOM_COUNT>
52

> <PUBCHEM_ATOM_DEF_STEREO_COUNT>
10

> <PUBCHEM_ATOM_UDEF_STEREO_COUNT>
2

> <PUBCHEM_BOND_DEF_STEREO_COUNT>
0

> <PUBCHEM_BOND_UDEF_STEREO_COUNT>
0

> <PUBCHEM_ISOTOPIC_ATOM_COUNT>
0

> <PUBCHEM_COMPONENT_COUNT>
1

> <PUBCHEM_CACTVS_TAUTO_COUNT>
-1

> <PUBCHEM_COORDINATE_TYPE>
1
5
255

> <PUBCHEM_BONDANNOTATIONS>
30  10  6
31  11  6
32  12  5
24  2  5
20  26  5
27  35  3
28  3  5
33  37  6
34  36  8
34  38  8
35  40  8
35  41  8
36  39  8
38  42  8
39  43  8
40  44  8
41  45  8
42  43  8
44  46  8
45  46  8
21  5  6
22  6  5
23  7  6
25  9  3

$$$$
