 
  -OEChem-10192103512D

 51 53  0     1  0  0  0  0  0999 V2000
   15.0506   -0.2771    0.0000 O   0  0  0  0  0  0  0  0  0  0  0  0
   11.5826   -1.2637    0.0000 O   0  0  0  0  0  0  0  0  0  0  0  0
   14.1903    1.2262    0.0000 O   0  0  0  0  0  0  0  0  0  0  0  0
   15.0390   -3.2771    0.0000 O   0  0  0  0  0  0  0  0  0  0  0  0
   13.3070   -3.2704    0.0000 O   0  0  0  0  0  0  0  0  0  0  0  0
    3.7320    0.2771    0.0000 O   0  0  0  0  0  0  0  0  0  0  0  0
    2.0000    3.2771    0.0000 O   0  0  0  0  0  0  0  0  0  0  0  0
    9.0019    3.2462    0.0000 O   0  0  0  0  0  0  0  0  0  0  0  0
   12.4544    0.2329    0.0000 N   0  0  0  0  0  0  0  0  0  0  0  0
    8.1301    1.7496    0.0000 N   0  0  0  0  0  0  0  0  0  0  0  0
    5.4920    1.2424    0.0000 N   0  0  0  0  0  0  0  0  0  0  0  0
    3.7320    3.2771    0.0000 N   0  0  0  0  0  0  0  0  0  0  0  0
    5.4920    3.3117    0.0000 N   0  0  0  0  0  0  0  0  0  0  0  0
    2.8660    1.7771    0.0000 N   0  0  0  0  0  0  0  0  0  0  0  0
    8.1340    2.7496    0.0000 N   0  0  0  0  0  0  0  0  0  0  0  0
   13.3185   -0.2704    0.0000 C   0  0  3  0  0  0  0  0  0  0  0  0
   13.3147   -1.2704    0.0000 C   0  0  0  0  0  0  0  0  0  0  0  0
   14.1788   -1.7738    0.0000 C   0  0  0  0  0  0  0  0  0  0  0  0
   10.7224    0.2396    0.0000 C   0  0  0  0  0  0  0  0  0  0  0  0
   11.5865   -0.2638    0.0000 C   0  0  0  0  0  0  0  0  0  0  0  0
    8.9942    1.2462    0.0000 C   0  0  0  0  0  0  0  0  0  0  0  0
   14.1865    0.2262    0.0000 C   0  0  0  0  0  0  0  0  0  0  0  0
    7.2622    1.2529    0.0000 C   0  0  0  0  0  0  0  0  0  0  0  0
    9.8544   -0.2571    0.0000 C   0  0  0  0  0  0  0  0  0  0  0  0
   10.7263    1.2396    0.0000 C   0  0  0  0  0  0  0  0  0  0  0  0
    6.3981    1.7563    0.0000 C   0  0  0  0  0  0  0  0  0  0  0  0
    8.9904    0.2463    0.0000 C   0  0  0  0  0  0  0  0  0  0  0  0
    9.8622    1.7429    0.0000 C   0  0  0  0  0  0  0  0  0  0  0  0
   14.1749   -2.7738    0.0000 C   0  0  0  0  0  0  0  0  0  0  0  0
    4.5981    1.7771    0.0000 C   0  0  0  0  0  0  0  0  0  0  0  0
    4.5981    2.7771    0.0000 C   0  0  0  0  0  0  0  0  0  0  0  0
    6.3981    2.7979    0.0000 C   0  0  0  0  0  0  0  0  0  0  0  0
    3.7320    1.2771    0.0000 C   0  0  0  0  0  0  0  0  0  0  0  0
    2.8660    2.7771    0.0000 C   0  0  0  0  0  0  0  0  0  0  0  0
   13.3209    0.3496    0.0000 H   0  0  0  0  0  0  0  0  0  0  0  0
   12.7045   -1.1604    0.0000 H   0  0  0  0  0  0  0  0  0  0  0  0
   13.1004   -1.8522    0.0000 H   0  0  0  0  0  0  0  0  0  0  0  0
   14.7889   -1.8838    0.0000 H   0  0  0  0  0  0  0  0  0  0  0  0
   14.3931   -1.1920    0.0000 H   0  0  0  0  0  0  0  0  0  0  0  0
   12.4568    0.8529    0.0000 H   0  0  0  0  0  0  0  0  0  0  0  0
    6.8618    0.7795    0.0000 H   0  0  0  0  0  0  0  0  0  0  0  0
    7.6589    0.7764    0.0000 H   0  0  0  0  0  0  0  0  0  0  0  0
    9.8521   -0.8771    0.0000 H   0  0  0  0  0  0  0  0  0  0  0  0
   11.2644    1.5475    0.0000 H   0  0  0  0  0  0  0  0  0  0  0  0
    8.4522   -0.0617    0.0000 H   0  0  0  0  0  0  0  0  0  0  0  0
    9.8646    2.3629    0.0000 H   0  0  0  0  0  0  0  0  0  0  0  0
    6.9338    3.1100    0.0000 H   0  0  0  0  0  0  0  0  0  0  0  0
    3.7320    3.8971    0.0000 H   0  0  0  0  0  0  0  0  0  0  0  0
   15.5887    0.0308    0.0000 H   0  0  0  0  0  0  0  0  0  0  0  0
    2.3291    1.4671    0.0000 H   0  0  0  0  0  0  0  0  0  0  0  0
   15.0366   -3.8971    0.0000 H   0  0  0  0  0  0  0  0  0  0  0  0
  1 22  1  0  0  0  0
  1 49  1  0  0  0  0
  2 20  2  0  0  0  0
  3 22  2  0  0  0  0
  4 29  1  0  0  0  0
  4 51  1  0  0  0  0
  5 29  2  0  0  0  0
  6 33  2  0  0  0  0
  7 34  2  0  0  0  0
  8 15  2  0  0  0  0
  9 16  1  0  0  0  0
  9 20  1  0  0  0  0
  9 40  1  0  0  0  0
 10 15  1  0  0  0  0
 10 21  1  0  0  0  0
 10 23  1  0  0  0  0
 11 26  1  0  0  0  0
 11 30  2  0  0  0  0
 12 31  1  0  0  0  0
 12 34  1  0  0  0  0
 12 48  1  0  0  0  0
 13 31  2  0  0  0  0
 13 32  1  0  0  0  0
 14 33  1  0  0  0  0
 14 34  1  0  0  0  0
 14 50  1  0  0  0  0
 16 17  1  0  0  0  0
 16 22  1  0  0  0  0
 16 35  1  0  0  0  0
 17 18  1  0  0  0  0
 17 36  1  0  0  0  0
 17 37  1  0  0  0  0
 18 29  1  0  0  0  0
 18 38  1  0  0  0  0
 18 39  1  0  0  0  0
 19 20  1  0  0  0  0
 19 24  2  0  0  0  0
 19 25  1  0  0  0  0
 21 27  2  0  0  0  0
 21 28  1  0  0  0  0
 23 26  1  0  0  0  0
 23 41  1  0  0  0  0
 23 42  1  0  0  0  0
 24 27  1  0  0  0  0
 24 43  1  0  0  0  0
 25 28  2  0  0  0  0
 25 44  1  0  0  0  0
 26 32  2  0  0  0  0
 27 45  1  0  0  0  0
 28 46  1  0  0  0  0
 30 31  1  0  0  0  0
 30 33  1  0  0  0  0
 32 47  1  0  0  0  0
M  END
> <PUBCHEM_COMPOUND_CID>
99984

> <PUBCHEM_COMPOUND_CANONICALIZED>
1

> <PUBCHEM_CACTVS_COMPLEXITY>
832

> <PUBCHEM_CACTVS_HBOND_ACCEPTOR>
12

> <PUBCHEM_CACTVS_HBOND_DONOR>
5

> <PUBCHEM_CACTVS_ROTATABLE_BOND>
9

> <PUBCHEM_CACTVS_SUBSKEYS>
AAADceB7vAAAAAAAAAAAAAAAAAAAAAAAAAA8WIAAAAAAAACxwAAAHgAcCAAADCjBngQ9+JLIEgCpAzf3fACChC03EiAZ2IG4dMiKYHrA1bGUYYhslyLYyee8rwCeCAAAAAAAAAAQAAAAAAAAAAAAAAAAAA==

> <PUBCHEM_IUPAC_OPENEYE_NAME>
2-[[4-[(2,4-dioxo-1H-pteridin-6-yl)methyl-nitroso-amino]benzoyl]amino]pentanedioic acid

> <PUBCHEM_IUPAC_CAS_NAME>
2-[[[4-[(2,4-dioxo-1H-pteridin-6-yl)methyl-nitrosoamino]phenyl]-oxomethyl]amino]pentanedioic acid

> <PUBCHEM_IUPAC_NAME_MARKUP>
2-[[4-[(2,4-dioxo-1<I>H</I>-pteridin-6-yl)methyl-nitrosoamino]benzoyl]amino]pentanedioic acid

> <PUBCHEM_IUPAC_NAME>
2-[[4-[(2,4-dioxo-1H-pteridin-6-yl)methyl-nitrosoamino]benzoyl]amino]pentanedioic acid

> <PUBCHEM_IUPAC_SYSTEMATIC_NAME>
2-[[4-[[2,4-bis(oxidanylidene)-1H-pteridin-6-yl]methyl-nitroso-amino]phenyl]carbonylamino]pentanedioic acid

> <PUBCHEM_IUPAC_TRADITIONAL_NAME>
2-[[4-[(2,4-diketo-1H-pteridin-6-yl)methyl-nitroso-amino]benzoyl]amino]glutaric acid

> <PUBCHEM_IUPAC_INCHI>
InChI=1S/C19H17N7O8/c27-13(28)6-5-12(18(31)32)22-16(29)9-1-3-11(4-2-9)26(25-34)8-10-7-20-15-14(21-10)17(30)24-19(33)23-15/h1-4,7,12H,5-6,8H2,(H,22,29)(H,27,28)(H,31,32)(H2,20,23,24,30,33)

> <PUBCHEM_IUPAC_INCHIKEY>
KFMRVHJXQLOMMS-UHFFFAOYSA-N

> <PUBCHEM_XLOGP3_AA>
-0.9

> <PUBCHEM_EXACT_MASS>
471.11386053

> <PUBCHEM_MOLECULAR_FORMULA>
C19H17N7O8

> <PUBCHEM_MOLECULAR_WEIGHT>
471.4

> <PUBCHEM_OPENEYE_CAN_SMILES>
C1=CC(=CC=C1C(=O)NC(CCC(=O)O)C(=O)O)N(CC2=CN=C3C(=N2)C(=O)NC(=O)N3)N=O

> <PUBCHEM_OPENEYE_ISO_SMILES>
C1=CC(=CC=C1C(=O)NC(CCC(=O)O)C(=O)O)N(CC2=CN=C3C(=N2)C(=O)NC(=O)N3)N=O

> <PUBCHEM_CACTVS_TPSA>
220

> <PUBCHEM_MONOISOTOPIC_WEIGHT>
471.11386053

> <PUBCHEM_TOTAL_CHARGE>
0

> <PUBCHEM_HEAVY_ATOM_COUNT>
34

> <PUBCHEM_ATOM_DEF_STEREO_COUNT>
0

> <PUBCHEM_ATOM_UDEF_STEREO_COUNT>
1

> <PUBCHEM_BOND_DEF_STEREO_COUNT>
0

> <PUBCHEM_BOND_UDEF_STEREO_COUNT>
0

> <PUBCHEM_ISOTOPIC_ATOM_COUNT>
0

> <PUBCHEM_COMPONENT_COUNT>
1

> <PUBCHEM_CACTVS_TAUTO_COUNT>
24

> <PUBCHEM_COORDINATE_TYPE>
1
5
255

> <PUBCHEM_BONDANNOTATIONS>
11  26  8
11  30  8
12  31  8
12  34  8
13  31  8
13  32  8
14  33  8
14  34  8
16  17  3
19  24  8
19  25  8
21  27  8
21  28  8
24  27  8
25  28  8
26  32  8
30  31  8
30  33  8

$$$$
