 
  -OEChem-10192104082D

 25 26  0     1  0  0  0  0  0999 V2000
    6.0682   -1.6377    0.0000 O   0  0  0  0  0  0  0  0  0  0  0  0
    7.8003    1.3623    0.0000 O   0  0  0  0  0  0  0  0  0  0  0  0
    7.8003   -1.6377    0.0000 O   0  0  0  0  0  0  0  0  0  0  0  0
    2.5381   -1.6618    0.0000 O   0  0  0  0  0  0  0  0  0  0  0  0
    6.9343   -0.1377    0.0000 C   0  0  0  0  0  0  0  0  0  0  0  0
    7.8003    0.3623    0.0000 C   0  0  3  0  0  0  0  0  0  0  0  0
    5.2022   -0.1377    0.0000 C   0  0  0  0  0  0  0  0  0  0  0  0
    6.0682    0.3623    0.0000 C   0  0  0  0  0  0  0  0  0  0  0  0
    5.2022   -1.1377    0.0000 C   0  0  0  0  0  0  0  0  0  0  0  0
    6.9343   -1.1377    0.0000 C   0  0  0  0  0  0  0  0  0  0  0  0
    8.6663   -0.1377    0.0000 C   0  0  0  0  0  0  0  0  0  0  0  0
    4.3083    0.3970    0.0000 C   0  0  0  0  0  0  0  0  0  0  0  0
    4.3083   -1.6723    0.0000 C   0  0  0  0  0  0  0  0  0  0  0  0
    3.4022   -1.1585    0.0000 C   0  0  0  0  0  0  0  0  0  0  0  0
    3.4022   -0.1169    0.0000 C   0  0  0  0  0  0  0  0  0  0  0  0
    8.3372    0.6723    0.0000 H   0  0  0  0  0  0  0  0  0  0  0  0
    6.0682    0.9823    0.0000 H   0  0  0  0  0  0  0  0  0  0  0  0
    8.3563   -0.6746    0.0000 H   0  0  0  0  0  0  0  0  0  0  0  0
    9.2033   -0.4477    0.0000 H   0  0  0  0  0  0  0  0  0  0  0  0
    8.9763    0.3993    0.0000 H   0  0  0  0  0  0  0  0  0  0  0  0
    4.3154    1.0170    0.0000 H   0  0  0  0  0  0  0  0  0  0  0  0
    4.3154   -2.2923    0.0000 H   0  0  0  0  0  0  0  0  0  0  0  0
    2.8665    0.1952    0.0000 H   0  0  0  0  0  0  0  0  0  0  0  0
    8.3372    1.6723    0.0000 H   0  0  0  0  0  0  0  0  0  0  0  0
    2.0000   -1.3539    0.0000 H   0  0  0  0  0  0  0  0  0  0  0  0
  1  9  1  0  0  0  0
  1 10  1  0  0  0  0
  2  6  1  0  0  0  0
  2 24  1  0  0  0  0
  3 10  2  0  0  0  0
  4 14  1  0  0  0  0
  4 25  1  0  0  0  0
  5  6  1  0  0  0  0
  5  8  2  0  0  0  0
  5 10  1  0  0  0  0
  6 11  1  0  0  0  0
  6 16  1  0  0  0  0
  7  8  1  0  0  0  0
  7  9  2  0  0  0  0
  7 12  1  0  0  0  0
  8 17  1  0  0  0  0
  9 13  1  0  0  0  0
 11 18  1  0  0  0  0
 11 19  1  0  0  0  0
 11 20  1  0  0  0  0
 12 15  2  0  0  0  0
 12 21  1  0  0  0  0
 13 14  2  0  0  0  0
 13 22  1  0  0  0  0
 14 15  1  0  0  0  0
 15 23  1  0  0  0  0
M  END
> <PUBCHEM_COMPOUND_CID>
130113644

> <PUBCHEM_COMPOUND_CANONICALIZED>
1

> <PUBCHEM_CACTVS_COMPLEXITY>
297

> <PUBCHEM_CACTVS_HBOND_ACCEPTOR>
4

> <PUBCHEM_CACTVS_HBOND_DONOR>
2

> <PUBCHEM_CACTVS_ROTATABLE_BOND>
1

> <PUBCHEM_CACTVS_SUBSKEYS>
AAADccBwOAAAAAAAAAAAAAAAAAAAAAAAAAAwQAAAAAAAAACBAAAAGgAACAAADBSgmAIyDoAABgCIAiDSCAACCAAgIAAIiAEGCMgMNzaGMRqCeiCl4BUIuYeA4CwOIAAACAAIAABAAAAQABAAAAAAAAAAAA==

> <PUBCHEM_IUPAC_OPENEYE_NAME>
7-hydroxy-3-(1-hydroxyethyl)chromen-2-one

> <PUBCHEM_IUPAC_CAS_NAME>
7-hydroxy-3-(1-hydroxyethyl)-1-benzopyran-2-one

> <PUBCHEM_IUPAC_NAME_MARKUP>
7-hydroxy-3-(1-hydroxyethyl)chromen-2-one

> <PUBCHEM_IUPAC_NAME>
7-hydroxy-3-(1-hydroxyethyl)chromen-2-one

> <PUBCHEM_IUPAC_SYSTEMATIC_NAME>
3-(1-hydroxyethyl)-7-oxidanyl-chromen-2-one

> <PUBCHEM_IUPAC_TRADITIONAL_NAME>
7-hydroxy-3-(1-hydroxyethyl)coumarin

> <PUBCHEM_IUPAC_INCHI>
InChI=1S/C11H10O4/c1-6(12)9-4-7-2-3-8(13)5-10(7)15-11(9)14/h2-6,12-13H,1H3

> <PUBCHEM_IUPAC_INCHIKEY>
JBQSQUKUWGTDQM-UHFFFAOYSA-N

> <PUBCHEM_XLOGP3_AA>
1.6

> <PUBCHEM_EXACT_MASS>
206.05790880

> <PUBCHEM_MOLECULAR_FORMULA>
C11H10O4

> <PUBCHEM_MOLECULAR_WEIGHT>
206.19

> <PUBCHEM_OPENEYE_CAN_SMILES>
CC(C1=CC2=C(C=C(C=C2)O)OC1=O)O

> <PUBCHEM_OPENEYE_ISO_SMILES>
CC(C1=CC2=C(C=C(C=C2)O)OC1=O)O

> <PUBCHEM_CACTVS_TPSA>
66.8

> <PUBCHEM_MONOISOTOPIC_WEIGHT>
206.05790880

> <PUBCHEM_TOTAL_CHARGE>
0

> <PUBCHEM_HEAVY_ATOM_COUNT>
15

> <PUBCHEM_ATOM_DEF_STEREO_COUNT>
0

> <PUBCHEM_ATOM_UDEF_STEREO_COUNT>
1

> <PUBCHEM_BOND_DEF_STEREO_COUNT>
0

> <PUBCHEM_BOND_UDEF_STEREO_COUNT>
0

> <PUBCHEM_ISOTOPIC_ATOM_COUNT>
0

> <PUBCHEM_COMPONENT_COUNT>
1

> <PUBCHEM_CACTVS_TAUTO_COUNT>
-1

> <PUBCHEM_COORDINATE_TYPE>
1
5
255

> <PUBCHEM_BONDANNOTATIONS>
1  10  8
1  9  8
12  15  8
13  14  8
14  15  8
6  2  3
5  10  8
5  8  8
7  12  8
7  8  8
7  9  8
9  13  8

$$$$
