 
  -OEChem-10192103422D

 36 35  0     1  0  0  0  0  0999 V2000
    6.3301   -1.1550    0.0000 O   0  0  0  0  0  0  0  0  0  0  0  0
    7.1962    1.3450    0.0000 O   0  0  0  0  0  0  0  0  0  0  0  0
    5.4641    1.3450    0.0000 O   0  0  0  0  0  0  0  0  0  0  0  0
    8.0622   -1.1550    0.0000 O   0  0  0  0  0  0  0  0  0  0  0  0
    9.7942   -0.1550    0.0000 O   0  0  0  0  0  0  0  0  0  0  0  0
    5.4641   -1.6550    0.0000 O   0  0  0  0  0  0  0  0  0  0  0  0
    2.8660   -1.1550    0.0000 O   0  0  0  0  0  0  0  0  0  0  0  0
    4.5981   -0.1550    0.0000 N   0  0  0  0  0  0  0  0  0  0  0  0
    3.7320    0.3450    0.0000 N   0  0  0  0  0  0  0  0  0  0  0  0
    6.3301   -0.1550    0.0000 C   0  0  2  0  0  0  0  0  0  0  0  0
    7.1962    0.3450    0.0000 C   0  0  2  0  0  0  0  0  0  0  0  0
    5.4641    0.3450    0.0000 C   0  0  3  0  0  0  0  0  0  0  0  0
    8.0622   -0.1550    0.0000 C   0  0  1  0  0  0  0  0  0  0  0  0
    8.9282    0.3450    0.0000 C   0  0  0  0  0  0  0  0  0  0  0  0
    4.5981   -1.1550    0.0000 C   0  0  0  0  0  0  0  0  0  0  0  0
    3.7320   -1.6550    0.0000 C   0  0  0  0  0  0  0  0  0  0  0  0
    2.8660   -0.1550    0.0000 C   0  0  0  0  0  0  0  0  0  0  0  0
    2.0000    0.3450    0.0000 C   0  0  0  0  0  0  0  0  0  0  0  0
    6.8671   -0.4650    0.0000 H   0  0  0  0  0  0  0  0  0  0  0  0
    6.6592    0.6550    0.0000 H   0  0  0  0  0  0  0  0  0  0  0  0
    6.0010    0.6550    0.0000 H   0  0  0  0  0  0  0  0  0  0  0  0
    7.5252   -0.4650    0.0000 H   0  0  0  0  0  0  0  0  0  0  0  0
    9.3267    0.8199    0.0000 H   0  0  0  0  0  0  0  0  0  0  0  0
    8.5297    0.8199    0.0000 H   0  0  0  0  0  0  0  0  0  0  0  0
    6.8671   -1.4650    0.0000 H   0  0  0  0  0  0  0  0  0  0  0  0
    7.7331    1.6550    0.0000 H   0  0  0  0  0  0  0  0  0  0  0  0
    6.0010    1.6550    0.0000 H   0  0  0  0  0  0  0  0  0  0  0  0
    3.7320    0.9650    0.0000 H   0  0  0  0  0  0  0  0  0  0  0  0
    8.5991   -1.4650    0.0000 H   0  0  0  0  0  0  0  0  0  0  0  0
    3.4220   -1.1181    0.0000 H   0  0  0  0  0  0  0  0  0  0  0  0
    3.1951   -1.9650    0.0000 H   0  0  0  0  0  0  0  0  0  0  0  0
    4.0420   -2.1919    0.0000 H   0  0  0  0  0  0  0  0  0  0  0  0
   10.3312    0.1550    0.0000 H   0  0  0  0  0  0  0  0  0  0  0  0
    2.3100    0.8819    0.0000 H   0  0  0  0  0  0  0  0  0  0  0  0
    1.4631    0.6550    0.0000 H   0  0  0  0  0  0  0  0  0  0  0  0
    1.6900   -0.1919    0.0000 H   0  0  0  0  0  0  0  0  0  0  0  0
 10  1  1  1  0  0  0
  1 25  1  0  0  0  0
 11  2  1  1  0  0  0
  2 26  1  0  0  0  0
  3 12  1  0  0  0  0
  3 27  1  0  0  0  0
 13  4  1  1  0  0  0
  4 29  1  0  0  0  0
  5 14  1  0  0  0  0
  5 33  1  0  0  0  0
  6 15  2  0  0  0  0
  7 17  2  0  0  0  0
  8  9  1  0  0  0  0
  8 12  1  0  0  0  0
  8 15  1  0  0  0  0
  9 17  1  0  0  0  0
  9 28  1  0  0  0  0
 10 11  1  0  0  0  0
 10 12  1  0  0  0  0
 10 19  1  0  0  0  0
 11 13  1  0  0  0  0
 11 20  1  0  0  0  0
 12 21  1  0  0  0  0
 13 14  1  0  0  0  0
 13 22  1  0  0  0  0
 14 23  1  0  0  0  0
 14 24  1  0  0  0  0
 15 16  1  0  0  0  0
 16 30  1  0  0  0  0
 16 31  1  0  0  0  0
 16 32  1  0  0  0  0
 17 18  1  0  0  0  0
 18 34  1  0  0  0  0
 18 35  1  0  0  0  0
 18 36  1  0  0  0  0
M  END
> <PUBCHEM_COMPOUND_CID>
54512409

> <PUBCHEM_COMPOUND_CANONICALIZED>
1

> <PUBCHEM_CACTVS_COMPLEXITY>
299

> <PUBCHEM_CACTVS_HBOND_ACCEPTOR>
7

> <PUBCHEM_CACTVS_HBOND_DONOR>
6

> <PUBCHEM_CACTVS_ROTATABLE_BOND>
5

> <PUBCHEM_CACTVS_SUBSKEYS>
AAADceBzOAAAAAAAAAAAAAAAAAAAAAAAAAAAAAAAAAAAAAAAAAAAHgAYCAAACBThgAYCAAJiAgAIAAEQEAAAAAAAAAASIAAIAAADEAIAgAAEQAAHFgCRAADwMAIAAAAAAAAAAAAAAAAAAAAAAAAAAAAAAA==

> <PUBCHEM_IUPAC_OPENEYE_NAME>
N'-acetyl-N'-[(2R,3S,4R)-1,2,3,4,5-pentahydroxypentyl]acetohydrazide

> <PUBCHEM_IUPAC_CAS_NAME>
N'-acetyl-N'-[(2R,3S,4R)-1,2,3,4,5-pentahydroxypentyl]acetohydrazide

> <PUBCHEM_IUPAC_NAME_MARKUP>
<I>N</I>&apos;-acetyl-<I>N</I>&apos;-[(2<I>R</I>,3<I>S</I>,4<I>R</I>)-1,2,3,4,5-pentahydroxypentyl]acetohydrazide

> <PUBCHEM_IUPAC_NAME>
N'-acetyl-N'-[(2R,3S,4R)-1,2,3,4,5-pentahydroxypentyl]acetohydrazide

> <PUBCHEM_IUPAC_SYSTEMATIC_NAME>
N'-ethanoyl-N'-[(2R,3S,4R)-1,2,3,4,5-pentakis(oxidanyl)pentyl]ethanehydrazide

> <PUBCHEM_IUPAC_TRADITIONAL_NAME>
N'-acetyl-N'-[(2R,3S,4R)-1,2,3,4,5-pentahydroxypentyl]acetohydrazide

> <PUBCHEM_IUPAC_INCHI>
InChI=1S/C9H18N2O7/c1-4(13)10-11(5(2)14)9(18)8(17)7(16)6(15)3-12/h6-9,12,15-18H,3H2,1-2H3,(H,10,13)/t6-,7+,8-,9?/m1/s1

> <PUBCHEM_IUPAC_INCHIKEY>
YKBGXWAANNHXMO-OBCZXFEGSA-N

> <PUBCHEM_XLOGP3_AA>
-3.8

> <PUBCHEM_EXACT_MASS>
266.11140092

> <PUBCHEM_MOLECULAR_FORMULA>
C9H18N2O7

> <PUBCHEM_MOLECULAR_WEIGHT>
266.25

> <PUBCHEM_OPENEYE_CAN_SMILES>
CC(=O)NN(C(C(C(C(CO)O)O)O)O)C(=O)C

> <PUBCHEM_OPENEYE_ISO_SMILES>
CC(=O)NN(C([C@@H]([C@H]([C@@H](CO)O)O)O)O)C(=O)C

> <PUBCHEM_CACTVS_TPSA>
151

> <PUBCHEM_MONOISOTOPIC_WEIGHT>
266.11140092

> <PUBCHEM_TOTAL_CHARGE>
0

> <PUBCHEM_HEAVY_ATOM_COUNT>
18

> <PUBCHEM_ATOM_DEF_STEREO_COUNT>
3

> <PUBCHEM_ATOM_UDEF_STEREO_COUNT>
1

> <PUBCHEM_BOND_DEF_STEREO_COUNT>
0

> <PUBCHEM_BOND_UDEF_STEREO_COUNT>
0

> <PUBCHEM_ISOTOPIC_ATOM_COUNT>
0

> <PUBCHEM_COMPONENT_COUNT>
1

> <PUBCHEM_CACTVS_TAUTO_COUNT>
-1

> <PUBCHEM_COORDINATE_TYPE>
1
5
255

> <PUBCHEM_BONDANNOTATIONS>
10  1  5
11  2  5
12  3  3
13  4  5

$$$$
