 
  -OEChem-10192103542D

 97101  0     1  0  0  0  0  0999 V2000
    6.3301   -1.0000    0.0000 O   0  0  0  0  0  0  0  0  0  0  0  0
    8.0622   -1.0000    0.0000 O   0  0  0  0  0  0  0  0  0  0  0  0
    4.5981    1.0000    0.0000 O   0  0  0  0  0  0  0  0  0  0  0  0
    4.5981   -2.0000    0.0000 O   0  0  0  0  0  0  0  0  0  0  0  0
    8.0622    2.0000    0.0000 O   0  0  0  0  0  0  0  0  0  0  0  0
    9.7942    1.0000    0.0000 O   0  0  0  0  0  0  0  0  0  0  0  0
    2.8660   -1.0000    0.0000 O   0  0  0  0  0  0  0  0  0  0  0  0
    6.3301    1.0000    0.0000 O   0  0  0  0  0  0  0  0  0  0  0  0
    9.7942   -2.0000    0.0000 O   0  0  0  0  0  0  0  0  0  0  0  0
    2.8660    2.0000    0.0000 O   0  0  0  0  0  0  0  0  0  0  0  0
    2.8660   -2.0000    0.0000 O   0  0  0  0  0  0  0  0  0  0  0  0
    5.4641   -0.5000    0.0000 C   0  0  2  0  0  0  0  0  0  0  0  0
    4.5981   -1.0000    0.0000 C   0  0  2  0  0  0  0  0  0  0  0  0
    3.7320   -0.5000    0.0000 C   0  0  1  0  0  0  0  0  0  0  0  0
    8.0622    1.0000    0.0000 C   0  0  1  0  0  0  0  0  0  0  0  0
    7.1962   -0.5000    0.0000 C   0  0  1  0  0  0  0  0  0  0  0  0
    8.9282    0.5000    0.0000 C   0  0  1  0  0  0  0  0  0  0  0  0
    7.1962    0.5000    0.0000 C   0  0  0  0  0  0  0  0  0  0  0  0
    8.9282   -0.5000    0.0000 C   0  0  1  0  0  0  0  0  0  0  0  0
    3.7320    0.5000    0.0000 C   0  0  1  0  0  0  0  0  0  0  0  0
    5.4641    0.5000    0.0000 C   0  0  2  0  0  0  0  0  0  0  0  0
    9.7942   -1.0000    0.0000 C   0  0  0  0  0  0  0  0  0  0  0  0
    2.8660    1.0000    0.0000 C   0  0  0  0  0  0  0  0  0  0  0  0
    8.9282    2.5000    0.0000 C   0  0  0  0  0  0  0  0  0  0  0  0
   10.6603    0.5000    0.0000 C   0  0  0  0  0  0  0  0  0  0  0  0
    2.0000   -0.5000    0.0000 C   0  0  0  0  0  0  0  0  0  0  0  0
    3.7320   -2.5000    0.0000 C   0  0  0  0  0  0  0  0  0  0  0  0
    6.3301    2.0000    0.0000 C   0  0  0  0  0  0  0  0  0  0  0  0
    8.9282    3.5000    0.0000 C   0  0  0  0  0  0  0  0  0  0  0  0
   11.5263    1.0000    0.0000 C   0  0  0  0  0  0  0  0  0  0  0  0
   10.6603   -2.5000    0.0000 C   0  0  0  0  0  0  0  0  0  0  0  0
    3.7320   -3.5000    0.0000 C   0  0  0  0  0  0  0  0  0  0  0  0
    2.0000    2.5000    0.0000 C   0  0  0  0  0  0  0  0  0  0  0  0
   10.6603   -3.5000    0.0000 C   0  0  0  0  0  0  0  0  0  0  0  0
    9.7942    4.0000    0.0000 C   0  0  0  0  0  0  0  0  0  0  0  0
    8.0622    4.0000    0.0000 C   0  0  0  0  0  0  0  0  0  0  0  0
   11.5263    2.0000    0.0000 C   0  0  0  0  0  0  0  0  0  0  0  0
   12.3923    0.5000    0.0000 C   0  0  0  0  0  0  0  0  0  0  0  0
    9.7942    5.0000    0.0000 C   0  0  0  0  0  0  0  0  0  0  0  0
    8.0622    5.0000    0.0000 C   0  0  0  0  0  0  0  0  0  0  0  0
   12.3923    2.5000    0.0000 C   0  0  0  0  0  0  0  0  0  0  0  0
   13.2583    1.0000    0.0000 C   0  0  0  0  0  0  0  0  0  0  0  0
   11.5263   -4.0000    0.0000 C   0  0  0  0  0  0  0  0  0  0  0  0
    9.7942   -4.0000    0.0000 C   0  0  0  0  0  0  0  0  0  0  0  0
    8.9282    5.5000    0.0000 C   0  0  0  0  0  0  0  0  0  0  0  0
   13.2583    2.0000    0.0000 C   0  0  0  0  0  0  0  0  0  0  0  0
   11.5263   -5.0000    0.0000 C   0  0  0  0  0  0  0  0  0  0  0  0
    9.7942   -5.0000    0.0000 C   0  0  0  0  0  0  0  0  0  0  0  0
   10.6603   -5.5000    0.0000 C   0  0  0  0  0  0  0  0  0  0  0  0
    5.4641   -1.1200    0.0000 H   0  0  0  0  0  0  0  0  0  0  0  0
    4.0611   -1.3100    0.0000 H   0  0  0  0  0  0  0  0  0  0  0  0
    3.7320   -1.1200    0.0000 H   0  0  0  0  0  0  0  0  0  0  0  0
    7.5252    1.3100    0.0000 H   0  0  0  0  0  0  0  0  0  0  0  0
    6.6592   -0.1900    0.0000 H   0  0  0  0  0  0  0  0  0  0  0  0
    9.4651    0.1900    0.0000 H   0  0  0  0  0  0  0  0  0  0  0  0
    6.9841    1.0826    0.0000 H   0  0  0  0  0  0  0  0  0  0  0  0
    6.5856    0.3923    0.0000 H   0  0  0  0  0  0  0  0  0  0  0  0
    8.9282   -1.1200    0.0000 H   0  0  0  0  0  0  0  0  0  0  0  0
    3.7320    1.1200    0.0000 H   0  0  0  0  0  0  0  0  0  0  0  0
    5.4641    1.1200    0.0000 H   0  0  0  0  0  0  0  0  0  0  0  0
   10.4048   -1.1077    0.0000 H   0  0  0  0  0  0  0  0  0  0  0  0
   10.0063   -0.4174    0.0000 H   0  0  0  0  0  0  0  0  0  0  0  0
    2.2554    1.1077    0.0000 H   0  0  0  0  0  0  0  0  0  0  0  0
    2.6540    0.4174    0.0000 H   0  0  0  0  0  0  0  0  0  0  0  0
    9.1403    1.9174    0.0000 H   0  0  0  0  0  0  0  0  0  0  0  0
    9.5388    2.6077    0.0000 H   0  0  0  0  0  0  0  0  0  0  0  0
   10.2617    0.0251    0.0000 H   0  0  0  0  0  0  0  0  0  0  0  0
   11.0588    0.0251    0.0000 H   0  0  0  0  0  0  0  0  0  0  0  0
    2.3100    0.0369    0.0000 H   0  0  0  0  0  0  0  0  0  0  0  0
    1.4631   -0.1900    0.0000 H   0  0  0  0  0  0  0  0  0  0  0  0
    1.6900   -1.0369    0.0000 H   0  0  0  0  0  0  0  0  0  0  0  0
    6.9501    2.0000    0.0000 H   0  0  0  0  0  0  0  0  0  0  0  0
    6.3301    2.6200    0.0000 H   0  0  0  0  0  0  0  0  0  0  0  0
    5.7101    2.0000    0.0000 H   0  0  0  0  0  0  0  0  0  0  0  0
   11.2708   -2.6077    0.0000 H   0  0  0  0  0  0  0  0  0  0  0  0
   10.8723   -1.9174    0.0000 H   0  0  0  0  0  0  0  0  0  0  0  0
    3.1120   -3.5000    0.0000 H   0  0  0  0  0  0  0  0  0  0  0  0
    3.7320   -4.1200    0.0000 H   0  0  0  0  0  0  0  0  0  0  0  0
    4.3520   -3.5000    0.0000 H   0  0  0  0  0  0  0  0  0  0  0  0
    2.3100    3.0369    0.0000 H   0  0  0  0  0  0  0  0  0  0  0  0
    1.4631    2.8100    0.0000 H   0  0  0  0  0  0  0  0  0  0  0  0
    1.6900    1.9631    0.0000 H   0  0  0  0  0  0  0  0  0  0  0  0
   10.3312    3.6900    0.0000 H   0  0  0  0  0  0  0  0  0  0  0  0
    7.5252    3.6900    0.0000 H   0  0  0  0  0  0  0  0  0  0  0  0
   10.9893    2.3100    0.0000 H   0  0  0  0  0  0  0  0  0  0  0  0
   12.3923   -0.1200    0.0000 H   0  0  0  0  0  0  0  0  0  0  0  0
   10.3312    5.3100    0.0000 H   0  0  0  0  0  0  0  0  0  0  0  0
    7.5252    5.3100    0.0000 H   0  0  0  0  0  0  0  0  0  0  0  0
   12.3923    3.1200    0.0000 H   0  0  0  0  0  0  0  0  0  0  0  0
   13.7953    0.6900    0.0000 H   0  0  0  0  0  0  0  0  0  0  0  0
   12.0632   -3.6900    0.0000 H   0  0  0  0  0  0  0  0  0  0  0  0
    9.2573   -3.6900    0.0000 H   0  0  0  0  0  0  0  0  0  0  0  0
    8.9282    6.1200    0.0000 H   0  0  0  0  0  0  0  0  0  0  0  0
   13.7953    2.3100    0.0000 H   0  0  0  0  0  0  0  0  0  0  0  0
   12.0632   -5.3100    0.0000 H   0  0  0  0  0  0  0  0  0  0  0  0
    9.2573   -5.3100    0.0000 H   0  0  0  0  0  0  0  0  0  0  0  0
   10.6603   -6.1200    0.0000 H   0  0  0  0  0  0  0  0  0  0  0  0
 12  1  1  6  0  0  0
 16  1  1  6  0  0  0
  2 16  1  0  0  0  0
  2 19  1  0  0  0  0
  3 20  1  0  0  0  0
  3 21  1  0  0  0  0
 13  4  1  1  0  0  0
  4 27  1  0  0  0  0
 15  5  1  1  0  0  0
  5 24  1  0  0  0  0
 17  6  1  6  0  0  0
  6 25  1  0  0  0  0
 14  7  1  6  0  0  0
  7 26  1  0  0  0  0
 21  8  1  6  0  0  0
  8 28  1  0  0  0  0
  9 22  1  0  0  0  0
  9 31  1  0  0  0  0
 10 23  1  0  0  0  0
 10 33  1  0  0  0  0
 11 27  2  0  0  0  0
 12 13  1  0  0  0  0
 12 21  1  0  0  0  0
 12 50  1  0  0  0  0
 13 14  1  0  0  0  0
 13 51  1  0  0  0  0
 14 20  1  0  0  0  0
 14 52  1  0  0  0  0
 15 17  1  0  0  0  0
 15 18  1  0  0  0  0
 15 53  1  0  0  0  0
 16 18  1  0  0  0  0
 16 54  1  0  0  0  0
 17 19  1  0  0  0  0
 17 55  1  0  0  0  0
 18 56  1  0  0  0  0
 18 57  1  0  0  0  0
 19 22  1  1  0  0  0
 19 58  1  0  0  0  0
 20 23  1  1  0  0  0
 20 59  1  0  0  0  0
 21 60  1  0  0  0  0
 22 61  1  0  0  0  0
 22 62  1  0  0  0  0
 23 63  1  0  0  0  0
 23 64  1  0  0  0  0
 24 29  1  0  0  0  0
 24 65  1  0  0  0  0
 24 66  1  0  0  0  0
 25 30  1  0  0  0  0
 25 67  1  0  0  0  0
 25 68  1  0  0  0  0
 26 69  1  0  0  0  0
 26 70  1  0  0  0  0
 26 71  1  0  0  0  0
 27 32  1  0  0  0  0
 28 72  1  0  0  0  0
 28 73  1  0  0  0  0
 28 74  1  0  0  0  0
 29 35  2  0  0  0  0
 29 36  1  0  0  0  0
 30 37  2  0  0  0  0
 30 38  1  0  0  0  0
 31 34  1  0  0  0  0
 31 75  1  0  0  0  0
 31 76  1  0  0  0  0
 32 77  1  0  0  0  0
 32 78  1  0  0  0  0
 32 79  1  0  0  0  0
 33 80  1  0  0  0  0
 33 81  1  0  0  0  0
 33 82  1  0  0  0  0
 34 43  2  0  0  0  0
 34 44  1  0  0  0  0
 35 39  1  0  0  0  0
 35 83  1  0  0  0  0
 36 40  2  0  0  0  0
 36 84  1  0  0  0  0
 37 41  1  0  0  0  0
 37 85  1  0  0  0  0
 38 42  2  0  0  0  0
 38 86  1  0  0  0  0
 39 45  2  0  0  0  0
 39 87  1  0  0  0  0
 40 45  1  0  0  0  0
 40 88  1  0  0  0  0
 41 46  2  0  0  0  0
 41 89  1  0  0  0  0
 42 46  1  0  0  0  0
 42 90  1  0  0  0  0
 43 47  1  0  0  0  0
 43 91  1  0  0  0  0
 44 48  2  0  0  0  0
 44 92  1  0  0  0  0
 45 93  1  0  0  0  0
 46 94  1  0  0  0  0
 47 49  2  0  0  0  0
 47 95  1  0  0  0  0
 48 49  1  0  0  0  0
 48 96  1  0  0  0  0
 49 97  1  0  0  0  0
M  END
> <PUBCHEM_COMPOUND_CID>
101026705

> <PUBCHEM_COMPOUND_CANONICALIZED>
1

> <PUBCHEM_CACTVS_COMPLEXITY>
919

> <PUBCHEM_CACTVS_HBOND_ACCEPTOR>
11

> <PUBCHEM_CACTVS_HBOND_DONOR>
0

> <PUBCHEM_CACTVS_ROTATABLE_BOND>
18

> <PUBCHEM_CACTVS_SUBSKEYS>
AAADcfB8PAAAAAAAAAAAAAAAAAAAAAAAAAA0aMECAAAAAAABUAAAGgAAAAAADBSwmAMyCIAABACIAiDSCAACAAAgAAAIiAAACIgZJiKAMRiiMAAlwAEOqAfA4CwOAAAAAAAAAAAAAAAAAAAAAAAAAAAAAA==

> <PUBCHEM_IUPAC_OPENEYE_NAME>
[(2S,3R,4S,5R,6R)-3-[(2R,4R,5S,6R)-4,5-dibenzyloxy-6-(benzyloxymethyl)tetrahydropyran-2-yl]oxy-2,5-dimethoxy-6-(methoxymethyl)tetrahydropyran-4-yl] acetate

> <PUBCHEM_IUPAC_CAS_NAME>
acetic acid [(2S,3R,4S,5R,6R)-3-[[(2R,4R,5S,6R)-4,5-bis(phenylmethoxy)-6-(phenylmethoxymethyl)-2-oxanyl]oxy]-2,5-dimethoxy-6-(methoxymethyl)-4-oxanyl] ester

> <PUBCHEM_IUPAC_NAME_MARKUP>
[(2<I>S</I>,3<I>R</I>,4<I>S</I>,5<I>R</I>,6<I>R</I>)-3-[(2<I>R</I>,4<I>R</I>,5<I>S</I>,6<I>R</I>)-4,5-bis(phenylmethoxy)-6-(phenylmethoxymethyl)oxan-2-yl]oxy-2,5-dimethoxy-6-(methoxymethyl)oxan-4-yl] acetate

> <PUBCHEM_IUPAC_NAME>
[(2S,3R,4S,5R,6R)-3-[(2R,4R,5S,6R)-4,5-bis(phenylmethoxy)-6-(phenylmethoxymethyl)oxan-2-yl]oxy-2,5-dimethoxy-6-(methoxymethyl)oxan-4-yl] acetate

> <PUBCHEM_IUPAC_SYSTEMATIC_NAME>
[(2S,3R,4S,5R,6R)-3-[(2R,4R,5S,6R)-4,5-bis(phenylmethoxy)-6-(phenylmethoxymethyl)oxan-2-yl]oxy-2,5-dimethoxy-6-(methoxymethyl)oxan-4-yl] ethanoate

> <PUBCHEM_IUPAC_TRADITIONAL_NAME>
acetic acid [(2S,3R,4S,5R,6R)-3-[(2R,4R,5S,6R)-4,5-dibenzoxy-6-(benzoxymethyl)tetrahydropyran-2-yl]oxy-2,5-dimethoxy-6-(methoxymethyl)tetrahydropyran-4-yl] ester

> <PUBCHEM_IUPAC_INCHI>
InChI=1S/C38H48O11/c1-26(39)46-36-35(41-3)31(24-40-2)48-38(42-4)37(36)49-33-20-30(44-22-28-16-10-6-11-17-28)34(45-23-29-18-12-7-13-19-29)32(47-33)25-43-21-27-14-8-5-9-15-27/h5-19,30-38H,20-25H2,1-4H3/t30-,31-,32-,33-,34+,35-,36+,37-,38+/m1/s1

> <PUBCHEM_IUPAC_INCHIKEY>
HGYCCVDEMYAGIO-PXSGZDPTSA-N

> <PUBCHEM_XLOGP3_AA>
4

> <PUBCHEM_EXACT_MASS>
680.31966234

> <PUBCHEM_MOLECULAR_FORMULA>
C38H48O11

> <PUBCHEM_MOLECULAR_WEIGHT>
680.8

> <PUBCHEM_OPENEYE_CAN_SMILES>
CC(=O)OC1C(C(OC(C1OC2CC(C(C(O2)COCC3=CC=CC=C3)OCC4=CC=CC=C4)OCC5=CC=CC=C5)OC)COC)OC

> <PUBCHEM_OPENEYE_ISO_SMILES>
CC(=O)O[C@H]1[C@@H]([C@H](O[C@@H]([C@@H]1O[C@@H]2C[C@H]([C@@H]([C@H](O2)COCC3=CC=CC=C3)OCC4=CC=CC=C4)OCC5=CC=CC=C5)OC)COC)OC

> <PUBCHEM_CACTVS_TPSA>
109

> <PUBCHEM_MONOISOTOPIC_WEIGHT>
680.31966234

> <PUBCHEM_TOTAL_CHARGE>
0

> <PUBCHEM_HEAVY_ATOM_COUNT>
49

> <PUBCHEM_ATOM_DEF_STEREO_COUNT>
9

> <PUBCHEM_ATOM_UDEF_STEREO_COUNT>
0

> <PUBCHEM_BOND_DEF_STEREO_COUNT>
0

> <PUBCHEM_BOND_UDEF_STEREO_COUNT>
0

> <PUBCHEM_ISOTOPIC_ATOM_COUNT>
0

> <PUBCHEM_COMPONENT_COUNT>
1

> <PUBCHEM_CACTVS_TAUTO_COUNT>
-1

> <PUBCHEM_COORDINATE_TYPE>
1
5
255

> <PUBCHEM_BONDANNOTATIONS>
12  1  6
16  1  6
19  22  5
20  23  5
29  35  8
29  36  8
30  37  8
30  38  8
34  43  8
34  44  8
35  39  8
36  40  8
37  41  8
38  42  8
39  45  8
13  4  5
40  45  8
41  46  8
42  46  8
43  47  8
44  48  8
47  49  8
48  49  8
15  5  5
17  6  6
14  7  6
21  8  6

$$$$
