 
  -OEChem-10192103592D

 71 75  0     1  0  0  0  0  0999 V2000
    6.0580    1.0268    0.0000 O   0  0  0  0  0  0  0  0  0  0  0  0
    8.9765    1.9751    0.0000 O   0  0  0  0  0  0  0  0  0  0  0  0
    7.9851    0.0757    0.0000 O   0  0  0  0  0  0  0  0  0  0  0  0
    7.0580    2.9289    0.0000 O   0  0  0  0  0  0  0  0  0  0  0  0
    6.8671   -3.5610    0.0000 O   0  0  0  0  0  0  0  0  0  0  0  0
    5.1350   -3.5610    0.0000 O   0  0  0  0  0  0  0  0  0  0  0  0
    5.1350   -2.5610    0.0000 O   0  0  0  0  0  0  0  0  0  0  0  0
    9.9100    5.5571    0.0000 O   0  0  0  0  0  0  0  0  0  0  0  0
    6.8671   -5.5610    0.0000 O   0  0  0  0  0  0  0  0  0  0  0  0
    5.1350   -6.5610    0.0000 O   0  0  0  0  0  0  0  0  0  0  0  0
    3.4030   -5.5610    0.0000 O   0  0  0  0  0  0  0  0  0  0  0  0
    8.1797    6.5601    0.0000 O   0  0  0  0  0  0  0  0  0  0  0  0
    2.5369   -4.0610    0.0000 O   0  0  0  0  0  0  0  0  0  0  0  0
    7.6761    1.0268    0.0000 C   0  0  2  0  0  0  0  0  0  0  0  0
    7.3671    1.9778    0.0000 C   0  0  2  0  0  0  0  0  0  0  0  0
    6.8671    0.4390    0.0000 C   0  0  1  0  0  0  0  0  0  0  0  0
    8.1728    2.5601    0.0000 C   0  0  1  0  0  0  0  0  0  0  0  0
    6.3671    1.9778    0.0000 C   0  0  0  0  0  0  0  0  0  0  0  0
    8.6702    1.0294    0.0000 C   0  0  0  0  0  0  0  0  0  0  0  0
    6.8671   -0.5610    0.0000 C   0  0  0  0  0  0  0  0  0  0  0  0
    8.1745    3.5601    0.0000 C   0  0  0  0  0  0  0  0  0  0  0  0
    6.0010   -1.0610    0.0000 C   0  0  0  0  0  0  0  0  0  0  0  0
    7.7331   -1.0610    0.0000 C   0  0  0  0  0  0  0  0  0  0  0  0
    9.0414    4.0586    0.0000 C   0  0  0  0  0  0  0  0  0  0  0  0
    7.3094    4.0616    0.0000 C   0  0  0  0  0  0  0  0  0  0  0  0
    6.0010   -2.0610    0.0000 C   0  0  0  0  0  0  0  0  0  0  0  0
    7.7331   -2.0610    0.0000 C   0  0  0  0  0  0  0  0  0  0  0  0
    6.8671   -2.5610    0.0000 C   0  0  0  0  0  0  0  0  0  0  0  0
    9.0432    5.0586    0.0000 C   0  0  0  0  0  0  0  0  0  0  0  0
    7.3111    5.0616    0.0000 C   0  0  0  0  0  0  0  0  0  0  0  0
    6.0010   -4.0610    0.0000 C   0  0  2  0  0  0  0  0  0  0  0  0
    6.0010   -5.0610    0.0000 C   0  0  1  0  0  0  0  0  0  0  0  0
    5.1350   -5.5610    0.0000 C   0  0  2  0  0  0  0  0  0  0  0  0
    8.1780    5.5601    0.0000 C   0  0  0  0  0  0  0  0  0  0  0  0
    4.2690   -5.0610    0.0000 C   0  0  1  0  0  0  0  0  0  0  0  0
    4.2690   -4.0610    0.0000 C   0  0  1  0  0  0  0  0  0  0  0  0
    3.4030   -3.5610    0.0000 C   0  0  0  0  0  0  0  0  0  0  0  0
    4.2690   -2.0610    0.0000 C   0  0  0  0  0  0  0  0  0  0  0  0
   10.7752    5.0556    0.0000 C   0  0  0  0  0  0  0  0  0  0  0  0
    6.3146    0.1575    0.0000 H   0  0  0  0  0  0  0  0  0  0  0  0
    8.7256    2.8408    0.0000 H   0  0  0  0  0  0  0  0  0  0  0  0
    6.4319    2.5945    0.0000 H   0  0  0  0  0  0  0  0  0  0  0  0
    5.7606    2.1068    0.0000 H   0  0  0  0  0  0  0  0  0  0  0  0
    8.6066    0.4126    0.0000 H   0  0  0  0  0  0  0  0  0  0  0  0
    9.2768    0.9013    0.0000 H   0  0  0  0  0  0  0  0  0  0  0  0
    8.5916   -0.0532    0.0000 H   0  0  0  0  0  0  0  0  0  0  0  0
    6.4516    3.0578    0.0000 H   0  0  0  0  0  0  0  0  0  0  0  0
    5.4641   -0.7510    0.0000 H   0  0  0  0  0  0  0  0  0  0  0  0
    8.2700   -0.7510    0.0000 H   0  0  0  0  0  0  0  0  0  0  0  0
    9.5778    3.7476    0.0000 H   0  0  0  0  0  0  0  0  0  0  0  0
    6.7719    3.7525    0.0000 H   0  0  0  0  0  0  0  0  0  0  0  0
    8.2700   -2.3710    0.0000 H   0  0  0  0  0  0  0  0  0  0  0  0
    6.7747    5.3725    0.0000 H   0  0  0  0  0  0  0  0  0  0  0  0
    6.0010   -3.4410    0.0000 H   0  0  0  0  0  0  0  0  0  0  0  0
    6.0010   -5.6810    0.0000 H   0  0  0  0  0  0  0  0  0  0  0  0
    4.5981   -5.8710    0.0000 H   0  0  0  0  0  0  0  0  0  0  0  0
    4.2690   -5.6810    0.0000 H   0  0  0  0  0  0  0  0  0  0  0  0
    4.2690   -3.4410    0.0000 H   0  0  0  0  0  0  0  0  0  0  0  0
    3.8015   -3.0860    0.0000 H   0  0  0  0  0  0  0  0  0  0  0  0
    3.0044   -3.0860    0.0000 H   0  0  0  0  0  0  0  0  0  0  0  0
    7.4040   -5.2510    0.0000 H   0  0  0  0  0  0  0  0  0  0  0  0
    5.6720   -6.8710    0.0000 H   0  0  0  0  0  0  0  0  0  0  0  0
    3.4030   -6.1810    0.0000 H   0  0  0  0  0  0  0  0  0  0  0  0
    7.6433    6.8710    0.0000 H   0  0  0  0  0  0  0  0  0  0  0  0
    4.5790   -1.5240    0.0000 H   0  0  0  0  0  0  0  0  0  0  0  0
    3.7320   -1.7510    0.0000 H   0  0  0  0  0  0  0  0  0  0  0  0
    3.9590   -2.5979    0.0000 H   0  0  0  0  0  0  0  0  0  0  0  0
   10.4643    4.5192    0.0000 H   0  0  0  0  0  0  0  0  0  0  0  0
   11.3116    4.7446    0.0000 H   0  0  0  0  0  0  0  0  0  0  0  0
   11.0861    5.5920    0.0000 H   0  0  0  0  0  0  0  0  0  0  0  0
    2.0000   -3.7510    0.0000 H   0  0  0  0  0  0  0  0  0  0  0  0
  1 16  1  0  0  0  0
  1 18  1  0  0  0  0
  2 17  1  0  0  0  0
  2 19  1  0  0  0  0
 14  3  1  1  0  0  0
  3 46  1  0  0  0  0
 15  4  1  1  0  0  0
  4 47  1  0  0  0  0
  5 28  1  0  0  0  0
 31  5  1  1  0  0  0
  6 31  1  0  0  0  0
  6 36  1  0  0  0  0
  7 26  1  0  0  0  0
  7 38  1  0  0  0  0
  8 29  1  0  0  0  0
  8 39  1  0  0  0  0
 32  9  1  6  0  0  0
  9 61  1  0  0  0  0
 33 10  1  1  0  0  0
 10 62  1  0  0  0  0
 35 11  1  6  0  0  0
 11 63  1  0  0  0  0
 12 34  1  0  0  0  0
 12 64  1  0  0  0  0
 13 37  1  0  0  0  0
 13 71  1  0  0  0  0
 14 15  1  0  0  0  0
 14 16  1  0  0  0  0
 14 19  1  0  0  0  0
 15 17  1  0  0  0  0
 15 18  1  0  0  0  0
 16 20  1  1  0  0  0
 16 40  1  0  0  0  0
 17 21  1  1  0  0  0
 17 41  1  0  0  0  0
 18 42  1  0  0  0  0
 18 43  1  0  0  0  0
 19 44  1  0  0  0  0
 19 45  1  0  0  0  0
 20 22  2  0  0  0  0
 20 23  1  0  0  0  0
 21 24  2  0  0  0  0
 21 25  1  0  0  0  0
 22 26  1  0  0  0  0
 22 48  1  0  0  0  0
 23 27  2  0  0  0  0
 23 49  1  0  0  0  0
 24 29  1  0  0  0  0
 24 50  1  0  0  0  0
 25 30  2  0  0  0  0
 25 51  1  0  0  0  0
 26 28  2  0  0  0  0
 27 28  1  0  0  0  0
 27 52  1  0  0  0  0
 29 34  2  0  0  0  0
 30 34  1  0  0  0  0
 30 53  1  0  0  0  0
 31 32  1  0  0  0  0
 31 54  1  0  0  0  0
 32 33  1  0  0  0  0
 32 55  1  0  0  0  0
 33 35  1  0  0  0  0
 33 56  1  0  0  0  0
 35 36  1  0  0  0  0
 35 57  1  0  0  0  0
 36 37  1  1  0  0  0
 36 58  1  0  0  0  0
 37 59  1  0  0  0  0
 37 60  1  0  0  0  0
 38 65  1  0  0  0  0
 38 66  1  0  0  0  0
 38 67  1  0  0  0  0
 39 68  1  0  0  0  0
 39 69  1  0  0  0  0
 39 70  1  0  0  0  0
M  END
> <PUBCHEM_COMPOUND_CID>
11376300

> <PUBCHEM_COMPOUND_CANONICALIZED>
1

> <PUBCHEM_CACTVS_COMPLEXITY>
834

> <PUBCHEM_CACTVS_HBOND_ACCEPTOR>
13

> <PUBCHEM_CACTVS_HBOND_DONOR>
7

> <PUBCHEM_CACTVS_ROTATABLE_BOND>
7

> <PUBCHEM_CACTVS_SUBSKEYS>
AAADcfB4PAAAAAAAAAAAAAAAAAAAASJAAAA0YIAAAAASAAABQAAAGgAACAAADFSwmAMyDoAABgCAAiBCAAACCAAgIAAIiAAGiIgdNiKGMRqieCOlwBEPuAfA4PwOoAABAAAAQABAAAIAAACAAAAAAAAAAA==

> <PUBCHEM_IUPAC_OPENEYE_NAME>
(2S,3R,4S,5S,6R)-2-[4-[(3R,3aS,6R,6aS)-3a,6a-dihydroxy-3-(4-hydroxy-3-methoxy-phenyl)-1,3,4,6-tetrahydrofuro[3,4-c]furan-6-yl]-2-methoxy-phenoxy]-6-(hydroxymethyl)tetrahydropyran-3,4,5-triol

> <PUBCHEM_IUPAC_CAS_NAME>
(2S,3R,4S,5S,6R)-2-[4-[(3R,3aS,6R,6aS)-3a,6a-dihydroxy-3-(4-hydroxy-3-methoxyphenyl)-1,3,4,6-tetrahydrofuro[3,4-c]furan-6-yl]-2-methoxyphenoxy]-6-(hydroxymethyl)oxane-3,4,5-triol

> <PUBCHEM_IUPAC_NAME_MARKUP>
(2<I>S</I>,3<I>R</I>,4<I>S</I>,5<I>S</I>,6<I>R</I>)-2-[4-[(3<I>R</I>,3<I>a</I><I>S</I>,6<I>R</I>,6<I>a</I><I>S</I>)-3<I>a</I>,6<I>a</I>-dihydroxy-3-(4-hydroxy-3-methoxyphenyl)-1,3,4,6-tetrahydrofuro[3,4-c]furan-6-yl]-2-methoxyphenoxy]-6-(hydroxymethyl)oxane-3,4,5-triol

> <PUBCHEM_IUPAC_NAME>
(2S,3R,4S,5S,6R)-2-[4-[(3R,3aS,6R,6aS)-3a,6a-dihydroxy-3-(4-hydroxy-3-methoxyphenyl)-1,3,4,6-tetrahydrofuro[3,4-c]furan-6-yl]-2-methoxyphenoxy]-6-(hydroxymethyl)oxane-3,4,5-triol

> <PUBCHEM_IUPAC_SYSTEMATIC_NAME>
(2S,3R,4S,5S,6R)-2-[4-[(3R,3aS,6R,6aS)-3-(3-methoxy-4-oxidanyl-phenyl)-3a,6a-bis(oxidanyl)-1,3,4,6-tetrahydrofuro[3,4-c]furan-6-yl]-2-methoxy-phenoxy]-6-(hydroxymethyl)oxane-3,4,5-triol

> <PUBCHEM_IUPAC_TRADITIONAL_NAME>
(2S,3R,4S,5S,6R)-2-[4-[(3R,3aS,6R,6aS)-3a,6a-dihydroxy-3-(4-hydroxy-3-methoxy-phenyl)-1,3,4,6-tetrahydrofuro[3,4-c]furan-6-yl]-2-methoxy-phenoxy]-6-methylol-tetrahydropyran-3,4,5-triol

> <PUBCHEM_IUPAC_INCHI>
InChI=1S/C26H32O13/c1-34-16-7-12(3-5-14(16)28)22-25(32)10-37-23(26(25,33)11-36-22)13-4-6-15(17(8-13)35-2)38-24-21(31)20(30)19(29)18(9-27)39-24/h3-8,18-24,27-33H,9-11H2,1-2H3/t18-,19-,20+,21-,22-,23-,24-,25+,26+/m1/s1

> <PUBCHEM_IUPAC_INCHIKEY>
IBQVOWQTGYYRJP-GEHXJZNZSA-N

> <PUBCHEM_XLOGP3_AA>
-1.6

> <PUBCHEM_EXACT_MASS>
552.18429107

> <PUBCHEM_MOLECULAR_FORMULA>
C26H32O13

> <PUBCHEM_MOLECULAR_WEIGHT>
552.5

> <PUBCHEM_OPENEYE_CAN_SMILES>
COC1=C(C=CC(=C1)C2C3(COC(C3(CO2)O)C4=CC(=C(C=C4)OC5C(C(C(C(O5)CO)O)O)O)OC)O)O

> <PUBCHEM_OPENEYE_ISO_SMILES>
COC1=C(C=CC(=C1)[C@@H]2[C@]3(CO[C@@H]([C@]3(CO2)O)C4=CC(=C(C=C4)O[C@H]5[C@@H]([C@H]([C@@H]([C@H](O5)CO)O)O)O)OC)O)O

> <PUBCHEM_CACTVS_TPSA>
197

> <PUBCHEM_MONOISOTOPIC_WEIGHT>
552.18429107

> <PUBCHEM_TOTAL_CHARGE>
0

> <PUBCHEM_HEAVY_ATOM_COUNT>
39

> <PUBCHEM_ATOM_DEF_STEREO_COUNT>
9

> <PUBCHEM_ATOM_UDEF_STEREO_COUNT>
0

> <PUBCHEM_BOND_DEF_STEREO_COUNT>
0

> <PUBCHEM_BOND_UDEF_STEREO_COUNT>
0

> <PUBCHEM_ISOTOPIC_ATOM_COUNT>
0

> <PUBCHEM_COMPONENT_COUNT>
1

> <PUBCHEM_CACTVS_TAUTO_COUNT>
-1

> <PUBCHEM_COORDINATE_TYPE>
1
5
255

> <PUBCHEM_BONDANNOTATIONS>
33  10  5
35  11  6
16  20  5
17  21  5
20  22  8
20  23  8
21  24  8
21  25  8
22  26  8
23  27  8
24  29  8
25  30  8
26  28  8
27  28  8
29  34  8
14  3  5
30  34  8
36  37  5
15  4  5
31  5  5
32  9  6

$$$$
