 
  -OEChem-10192104352D

 52 52  0     0  0  0  0  0  0999 V2000
    2.8660   -3.7500    0.0000 P   0  0  0  0  0  0  0  0  0  0  0  0
    7.1962    3.7500    0.0000 P   0  0  0  0  0  0  0  0  0  0  0  0
    2.0000   -4.2500    0.0000 O   0  0  0  0  0  0  0  0  0  0  0  0
    3.3660   -4.6160    0.0000 O   0  0  0  0  0  0  0  0  0  0  0  0
    7.1962    4.7500    0.0000 O   0  0  0  0  0  0  0  0  0  0  0  0
    8.1962    3.7500    0.0000 O   0  0  0  0  0  0  0  0  0  0  0  0
    6.3301   -0.7500    0.0000 O   0  0  0  0  0  0  0  0  0  0  0  0
    2.3660   -2.8840    0.0000 O   0  0  0  0  0  0  0  0  0  0  0  0
    6.1962    3.7500    0.0000 O   0  0  0  0  0  0  0  0  0  0  0  0
    2.8660   -0.7500    0.0000 O   0  0  0  0  0  0  0  0  0  0  0  0
    4.5981   -0.7500    0.0000 N   0  0  0  0  0  0  0  0  0  0  0  0
    5.4641    0.7500    0.0000 N   0  0  0  0  0  0  0  0  0  0  0  0
    4.5981   -1.7500    0.0000 C   0  0  0  0  0  0  0  0  0  0  0  0
    6.3301    1.2500    0.0000 C   0  0  0  0  0  0  0  0  0  0  0  0
    3.7320   -2.2500    0.0000 C   0  0  0  0  0  0  0  0  0  0  0  0
    6.3301    2.2500    0.0000 C   0  0  0  0  0  0  0  0  0  0  0  0
    3.7320   -3.2500    0.0000 C   0  0  0  0  0  0  0  0  0  0  0  0
    7.1962    2.7500    0.0000 C   0  0  0  0  0  0  0  0  0  0  0  0
    5.4641   -0.2500    0.0000 C   0  0  0  0  0  0  0  0  0  0  0  0
    3.7320   -0.2500    0.0000 C   0  0  0  0  0  0  0  0  0  0  0  0
    4.5981    1.2500    0.0000 C   0  0  0  0  0  0  0  0  0  0  0  0
    3.7320    0.7500    0.0000 C   0  0  0  0  0  0  0  0  0  0  0  0
    2.0000   -5.2500    0.0000 C   0  0  0  0  0  0  0  0  0  0  0  0
    4.3660   -4.6160    0.0000 C   0  0  0  0  0  0  0  0  0  0  0  0
    8.0622    5.2500    0.0000 C   0  0  0  0  0  0  0  0  0  0  0  0
    8.6962    2.8840    0.0000 C   0  0  0  0  0  0  0  0  0  0  0  0
    4.8101   -2.3326    0.0000 H   0  0  0  0  0  0  0  0  0  0  0  0
    5.2087   -1.6423    0.0000 H   0  0  0  0  0  0  0  0  0  0  0  0
    6.5422    0.6674    0.0000 H   0  0  0  0  0  0  0  0  0  0  0  0
    6.9407    1.3577    0.0000 H   0  0  0  0  0  0  0  0  0  0  0  0
    3.5200   -1.6674    0.0000 H   0  0  0  0  0  0  0  0  0  0  0  0
    3.1215   -2.3577    0.0000 H   0  0  0  0  0  0  0  0  0  0  0  0
    6.1181    2.8326    0.0000 H   0  0  0  0  0  0  0  0  0  0  0  0
    5.7196    2.1423    0.0000 H   0  0  0  0  0  0  0  0  0  0  0  0
    3.9441   -3.8326    0.0000 H   0  0  0  0  0  0  0  0  0  0  0  0
    4.3426   -3.1423    0.0000 H   0  0  0  0  0  0  0  0  0  0  0  0
    7.4082    2.1674    0.0000 H   0  0  0  0  0  0  0  0  0  0  0  0
    7.8067    2.8577    0.0000 H   0  0  0  0  0  0  0  0  0  0  0  0
    4.5981    1.8700    0.0000 H   0  0  0  0  0  0  0  0  0  0  0  0
    3.1951    1.0600    0.0000 H   0  0  0  0  0  0  0  0  0  0  0  0
    1.3800   -5.2500    0.0000 H   0  0  0  0  0  0  0  0  0  0  0  0
    2.0000   -5.8700    0.0000 H   0  0  0  0  0  0  0  0  0  0  0  0
    2.6200   -5.2500    0.0000 H   0  0  0  0  0  0  0  0  0  0  0  0
    4.3660   -5.2360    0.0000 H   0  0  0  0  0  0  0  0  0  0  0  0
    4.9860   -4.6160    0.0000 H   0  0  0  0  0  0  0  0  0  0  0  0
    4.3660   -3.9960    0.0000 H   0  0  0  0  0  0  0  0  0  0  0  0
    8.3722    4.7131    0.0000 H   0  0  0  0  0  0  0  0  0  0  0  0
    8.5991    5.5600    0.0000 H   0  0  0  0  0  0  0  0  0  0  0  0
    7.7522    5.7869    0.0000 H   0  0  0  0  0  0  0  0  0  0  0  0
    8.1592    2.5740    0.0000 H   0  0  0  0  0  0  0  0  0  0  0  0
    9.0062    2.3470    0.0000 H   0  0  0  0  0  0  0  0  0  0  0  0
    9.2331    3.1940    0.0000 H   0  0  0  0  0  0  0  0  0  0  0  0
  1  3  1  0  0  0  0
  1  4  1  0  0  0  0
  1  8  2  0  0  0  0
  1 17  1  0  0  0  0
  2  5  1  0  0  0  0
  2  6  1  0  0  0  0
  2  9  2  0  0  0  0
  2 18  1  0  0  0  0
  3 23  1  0  0  0  0
  4 24  1  0  0  0  0
  5 25  1  0  0  0  0
  6 26  1  0  0  0  0
  7 19  2  0  0  0  0
 10 20  2  0  0  0  0
 11 13  1  0  0  0  0
 11 19  1  0  0  0  0
 11 20  1  0  0  0  0
 12 14  1  0  0  0  0
 12 19  1  0  0  0  0
 12 21  1  0  0  0  0
 13 15  1  0  0  0  0
 13 27  1  0  0  0  0
 13 28  1  0  0  0  0
 14 16  1  0  0  0  0
 14 29  1  0  0  0  0
 14 30  1  0  0  0  0
 15 17  1  0  0  0  0
 15 31  1  0  0  0  0
 15 32  1  0  0  0  0
 16 18  1  0  0  0  0
 16 33  1  0  0  0  0
 16 34  1  0  0  0  0
 17 35  1  0  0  0  0
 17 36  1  0  0  0  0
 18 37  1  0  0  0  0
 18 38  1  0  0  0  0
 20 22  1  0  0  0  0
 21 22  2  0  0  0  0
 21 39  1  0  0  0  0
 22 40  1  0  0  0  0
 23 41  1  0  0  0  0
 23 42  1  0  0  0  0
 23 43  1  0  0  0  0
 24 44  1  0  0  0  0
 24 45  1  0  0  0  0
 24 46  1  0  0  0  0
 25 47  1  0  0  0  0
 25 48  1  0  0  0  0
 25 49  1  0  0  0  0
 26 50  1  0  0  0  0
 26 51  1  0  0  0  0
 26 52  1  0  0  0  0
M  END
> <PUBCHEM_COMPOUND_CID>
3076160

> <PUBCHEM_COMPOUND_CANONICALIZED>
1

> <PUBCHEM_CACTVS_COMPLEXITY>
608

> <PUBCHEM_CACTVS_HBOND_ACCEPTOR>
8

> <PUBCHEM_CACTVS_HBOND_DONOR>
0

> <PUBCHEM_CACTVS_ROTATABLE_BOND>
12

> <PUBCHEM_CACTVS_SUBSKEYS>
AAADceBzPAMAAAAAAAAAAAAAAAAAAAAAAAAgAAAAAAAAAAAAAAAAHggAACAACADJgAYDAAMAARCIQCFWUICAAAAAAgAIAAAIAECAAAAAAAAEAAAIByKAAMAAAAAAAAAAAAAAAAAAAAAAAAAAAAAAAAAAAA==

> <PUBCHEM_IUPAC_OPENEYE_NAME>
1,3-bis(3-dimethoxyphosphorylpropyl)pyrimidine-2,4-dione

> <PUBCHEM_IUPAC_CAS_NAME>
1,3-bis(3-dimethoxyphosphorylpropyl)pyrimidine-2,4-dione

> <PUBCHEM_IUPAC_NAME_MARKUP>
1,3-bis(3-dimethoxyphosphorylpropyl)pyrimidine-2,4-dione

> <PUBCHEM_IUPAC_NAME>
1,3-bis(3-dimethoxyphosphorylpropyl)pyrimidine-2,4-dione

> <PUBCHEM_IUPAC_SYSTEMATIC_NAME>
1,3-bis(3-dimethoxyphosphorylpropyl)pyrimidine-2,4-dione

> <PUBCHEM_IUPAC_TRADITIONAL_NAME>
1,3-bis(3-dimethoxyphosphorylpropyl)pyrimidine-2,4-quinone

> <PUBCHEM_IUPAC_INCHI>
InChI=1S/C14H26N2O8P2/c1-21-25(19,22-2)11-5-8-15-10-7-13(17)16(14(15)18)9-6-12-26(20,23-3)24-4/h7,10H,5-6,8-9,11-12H2,1-4H3

> <PUBCHEM_IUPAC_INCHIKEY>
QRDGEDZXKXJOHJ-UHFFFAOYSA-N

> <PUBCHEM_XLOGP3_AA>
-1.4

> <PUBCHEM_EXACT_MASS>
412.11643979

> <PUBCHEM_MOLECULAR_FORMULA>
C14H26N2O8P2

> <PUBCHEM_MOLECULAR_WEIGHT>
412.31

> <PUBCHEM_OPENEYE_CAN_SMILES>
COP(=O)(CCCN1C=CC(=O)N(C1=O)CCCP(=O)(OC)OC)OC

> <PUBCHEM_OPENEYE_ISO_SMILES>
COP(=O)(CCCN1C=CC(=O)N(C1=O)CCCP(=O)(OC)OC)OC

> <PUBCHEM_CACTVS_TPSA>
112

> <PUBCHEM_MONOISOTOPIC_WEIGHT>
412.11643979

> <PUBCHEM_TOTAL_CHARGE>
0

> <PUBCHEM_HEAVY_ATOM_COUNT>
26

> <PUBCHEM_ATOM_DEF_STEREO_COUNT>
0

> <PUBCHEM_ATOM_UDEF_STEREO_COUNT>
0

> <PUBCHEM_BOND_DEF_STEREO_COUNT>
0

> <PUBCHEM_BOND_UDEF_STEREO_COUNT>
0

> <PUBCHEM_ISOTOPIC_ATOM_COUNT>
0

> <PUBCHEM_COMPONENT_COUNT>
1

> <PUBCHEM_CACTVS_TAUTO_COUNT>
1

> <PUBCHEM_COORDINATE_TYPE>
1
5
255

> <PUBCHEM_BONDANNOTATIONS>
11  19  8
11  20  8
12  19  8
12  21  8
20  22  8
21  22  8

$$$$
