 
  -OEChem-10192104382D

101104  0     1  0  0  0  0  0999 V2000
    6.0010    0.5000    0.0000 O   0  0  0  0  0  0  0  0  0  0  0  0
    9.4651    2.5000    0.0000 O   0  0  0  0  0  0  0  0  0  0  0  0
    6.8671   -1.0000    0.0000 O   0  0  0  0  0  0  0  0  0  0  0  0
    4.2690   -2.5000    0.0000 O   0  0  0  0  0  0  0  0  0  0  0  0
    7.7331    2.5000    0.0000 O   0  0  0  0  0  0  0  0  0  0  0  0
    9.4651    5.5000    0.0000 O   0  0  0  0  0  0  0  0  0  0  0  0
    6.0010   -3.5000    0.0000 O   0  0  0  0  0  0  0  0  0  0  0  0
    7.7331   -0.5000    0.0000 O   0  0  0  0  0  0  0  0  0  0  0  0
    5.1350   -4.0000    0.0000 O   0  0  0  0  0  0  0  0  0  0  0  0
    9.4651    0.5000    0.0000 O   0  0  0  0  0  0  0  0  0  0  0  0
    7.7331    3.5000    0.0000 O   0  0  0  0  0  0  0  0  0  0  0  0
    2.5369   -3.5000    0.0000 O   0  0  0  0  0  0  0  0  0  0  0  0
    2.5369   -5.5000    0.0000 O   0  0  0  0  0  0  0  0  0  0  0  0
    7.7331   -3.5000    0.0000 O   0  0  0  0  0  0  0  0  0  0  0  0
    7.7331    6.5000    0.0000 O   0  0  0  0  0  0  0  0  0  0  0  0
    6.0010    3.5000    0.0000 O   0  0  0  0  0  0  0  0  0  0  0  0
    5.1350    2.0000    0.0000 O   0  0  0  0  0  0  0  0  0  0  0  0
    3.4030   -2.0000    0.0000 O   0  0  0  0  0  0  0  0  0  0  0  0
   12.0632    5.0000    0.0000 O   0  0  0  0  0  0  0  0  0  0  0  0
    6.0010   -6.5000    0.0000 O   0  0  0  0  0  0  0  0  0  0  0  0
    6.8671   -5.0000    0.0000 O   0  0  0  0  0  0  0  0  0  0  0  0
    4.2690   -0.5000    0.0000 N   0  0  0  0  0  0  0  0  0  0  0  0
   11.1972    3.5000    0.0000 N   0  0  0  0  0  0  0  0  0  0  0  0
    5.1350   -1.0000    0.0000 C   0  0  3  0  0  0  0  0  0  0  0  0
    5.1350   -2.0000    0.0000 C   0  0  2  0  0  0  0  0  0  0  0  0
    9.4651    3.5000    0.0000 C   0  0  2  0  0  0  0  0  0  0  0  0
    6.0010   -0.5000    0.0000 C   0  0  2  0  0  0  0  0  0  0  0  0
    6.8671    1.0000    0.0000 C   0  0  1  0  0  0  0  0  0  0  0  0
    6.0010   -2.5000    0.0000 C   0  0  1  0  0  0  0  0  0  0  0  0
   10.3312    4.0000    0.0000 C   0  0  3  0  0  0  0  0  0  0  0  0
    7.7331    0.5000    0.0000 C   0  0  1  0  0  0  0  0  0  0  0  0
    8.5991    1.0000    0.0000 C   0  0  3  0  0  0  0  0  0  0  0  0
    8.5991    2.0000    0.0000 C   0  0  2  0  0  0  0  0  0  0  0  0
    6.8671   -2.0000    0.0000 C   0  0  3  0  0  0  0  0  0  0  0  0
    8.5991    4.0000    0.0000 C   0  0  1  0  0  0  0  0  0  0  0  0
    6.8671    2.0000    0.0000 C   0  0  3  0  0  0  0  0  0  0  0  0
   10.3312    5.0000    0.0000 C   0  0  2  0  0  0  0  0  0  0  0  0
    8.5991    5.0000    0.0000 C   0  0  3  0  0  0  0  0  0  0  0  0
    4.2690   -3.5000    0.0000 C   0  0  2  0  0  0  0  0  0  0  0  0
    3.4030   -4.0000    0.0000 C   0  0  3  0  0  0  0  0  0  0  0  0
    7.7331   -2.5000    0.0000 C   0  0  0  0  0  0  0  0  0  0  0  0
    3.4030   -5.0000    0.0000 C   0  0  2  0  0  0  0  0  0  0  0  0
   11.1972    5.5000    0.0000 C   0  0  0  0  0  0  0  0  0  0  0  0
    7.7331    5.5000    0.0000 C   0  0  0  0  0  0  0  0  0  0  0  0
    4.2690   -5.5000    0.0000 C   0  0  0  0  0  0  0  0  0  0  0  0
    5.1350   -5.0000    0.0000 C   0  0  3  0  0  0  0  0  0  0  0  0
    6.0010    2.5000    0.0000 C   0  0  0  0  0  0  0  0  0  0  0  0
    3.4030   -1.0000    0.0000 C   0  0  0  0  0  0  0  0  0  0  0  0
   12.0632    4.0000    0.0000 C   0  0  0  0  0  0  0  0  0  0  0  0
    6.0010   -5.5000    0.0000 C   0  0  0  0  0  0  0  0  0  0  0  0
    2.5369   -0.5000    0.0000 C   0  0  0  0  0  0  0  0  0  0  0  0
   12.9292    3.5000    0.0000 C   0  0  0  0  0  0  0  0  0  0  0  0
    2.5369   -6.5000    0.0000 C   0  0  0  0  0  0  0  0  0  0  0  0
    5.1350   -0.3800    0.0000 H   0  0  0  0  0  0  0  0  0  0  0  0
    4.5981   -1.6900    0.0000 H   0  0  0  0  0  0  0  0  0  0  0  0
   10.0021    3.1900    0.0000 H   0  0  0  0  0  0  0  0  0  0  0  0
    5.4641   -0.1900    0.0000 H   0  0  0  0  0  0  0  0  0  0  0  0
    6.3301    1.3100    0.0000 H   0  0  0  0  0  0  0  0  0  0  0  0
    5.4641   -2.8100    0.0000 H   0  0  0  0  0  0  0  0  0  0  0  0
   10.8681    4.3100    0.0000 H   0  0  0  0  0  0  0  0  0  0  0  0
    7.1962    0.1900    0.0000 H   0  0  0  0  0  0  0  0  0  0  0  0
    8.5991    0.3800    0.0000 H   0  0  0  0  0  0  0  0  0  0  0  0
    8.5991    2.6200    0.0000 H   0  0  0  0  0  0  0  0  0  0  0  0
    7.4040   -1.6900    0.0000 H   0  0  0  0  0  0  0  0  0  0  0  0
    8.5991    3.3800    0.0000 H   0  0  0  0  0  0  0  0  0  0  0  0
    6.8671    2.6200    0.0000 H   0  0  0  0  0  0  0  0  0  0  0  0
   10.3312    5.6200    0.0000 H   0  0  0  0  0  0  0  0  0  0  0  0
    8.5991    5.6200    0.0000 H   0  0  0  0  0  0  0  0  0  0  0  0
    3.7320   -3.1900    0.0000 H   0  0  0  0  0  0  0  0  0  0  0  0
    4.2690    0.1200    0.0000 H   0  0  0  0  0  0  0  0  0  0  0  0
    3.9399   -4.3100    0.0000 H   0  0  0  0  0  0  0  0  0  0  0  0
    8.3437   -2.6077    0.0000 H   0  0  0  0  0  0  0  0  0  0  0  0
    7.9451   -1.9174    0.0000 H   0  0  0  0  0  0  0  0  0  0  0  0
   11.1972    2.8800    0.0000 H   0  0  0  0  0  0  0  0  0  0  0  0
    3.4030   -5.6200    0.0000 H   0  0  0  0  0  0  0  0  0  0  0  0
   11.5072    4.9631    0.0000 H   0  0  0  0  0  0  0  0  0  0  0  0
   11.7341    5.8100    0.0000 H   0  0  0  0  0  0  0  0  0  0  0  0
   10.8872    6.0369    0.0000 H   0  0  0  0  0  0  0  0  0  0  0  0
    7.1225    5.6077    0.0000 H   0  0  0  0  0  0  0  0  0  0  0  0
    7.5210    4.9174    0.0000 H   0  0  0  0  0  0  0  0  0  0  0  0
    3.8705   -5.9750    0.0000 H   0  0  0  0  0  0  0  0  0  0  0  0
    4.6675   -5.9750    0.0000 H   0  0  0  0  0  0  0  0  0  0  0  0
    5.6720   -4.6900    0.0000 H   0  0  0  0  0  0  0  0  0  0  0  0
    6.5380   -3.8100    0.0000 H   0  0  0  0  0  0  0  0  0  0  0  0
    8.2700   -0.8100    0.0000 H   0  0  0  0  0  0  0  0  0  0  0  0
   10.0021    0.8100    0.0000 H   0  0  0  0  0  0  0  0  0  0  0  0
    7.1962    3.8100    0.0000 H   0  0  0  0  0  0  0  0  0  0  0  0
    2.0000   -3.8100    0.0000 H   0  0  0  0  0  0  0  0  0  0  0  0
    8.2700   -3.8100    0.0000 H   0  0  0  0  0  0  0  0  0  0  0  0
    7.1962    6.8100    0.0000 H   0  0  0  0  0  0  0  0  0  0  0  0
    2.8469    0.0369    0.0000 H   0  0  0  0  0  0  0  0  0  0  0  0
    2.0000   -0.1900    0.0000 H   0  0  0  0  0  0  0  0  0  0  0  0
    2.2269   -1.0369    0.0000 H   0  0  0  0  0  0  0  0  0  0  0  0
    5.4641    3.8100    0.0000 H   0  0  0  0  0  0  0  0  0  0  0  0
   12.6192    2.9631    0.0000 H   0  0  0  0  0  0  0  0  0  0  0  0
   13.4662    3.1900    0.0000 H   0  0  0  0  0  0  0  0  0  0  0  0
   13.2392    4.0369    0.0000 H   0  0  0  0  0  0  0  0  0  0  0  0
    1.9169   -6.5000    0.0000 H   0  0  0  0  0  0  0  0  0  0  0  0
    2.5369   -7.1200    0.0000 H   0  0  0  0  0  0  0  0  0  0  0  0
    3.1569   -6.5000    0.0000 H   0  0  0  0  0  0  0  0  0  0  0  0
    6.5380   -6.8100    0.0000 H   0  0  0  0  0  0  0  0  0  0  0  0
 27  1  1  6  0  0  0
 28  1  1  6  0  0  0
 26  2  1  1  0  0  0
 33  2  1  1  0  0  0
  3 27  1  0  0  0  0
  3 34  1  0  0  0  0
 25  4  1  6  0  0  0
 39  4  1  6  0  0  0
  5 33  1  0  0  0  0
  5 36  1  0  0  0  0
  6 37  1  0  0  0  0
  6 38  1  0  0  0  0
 29  7  1  1  0  0  0
  7 84  1  0  0  0  0
 31  8  1  1  0  0  0
  8 85  1  0  0  0  0
  9 39  1  0  0  0  0
  9 46  1  0  0  0  0
 10 32  1  0  0  0  0
 10 86  1  0  0  0  0
 35 11  1  6  0  0  0
 11 87  1  0  0  0  0
 12 40  1  0  0  0  0
 12 88  1  0  0  0  0
 42 13  1  6  0  0  0
 13 53  1  0  0  0  0
 14 41  1  0  0  0  0
 14 89  1  0  0  0  0
 15 44  1  0  0  0  0
 15 90  1  0  0  0  0
 16 47  1  0  0  0  0
 16 94  1  0  0  0  0
 17 47  2  0  0  0  0
 18 48  2  0  0  0  0
 19 49  2  0  0  0  0
 20 50  1  0  0  0  0
 20101  1  0  0  0  0
 21 50  2  0  0  0  0
 22 24  1  0  0  0  0
 22 48  1  0  0  0  0
 22 70  1  0  0  0  0
 23 30  1  0  0  0  0
 23 49  1  0  0  0  0
 23 74  1  0  0  0  0
 24 25  1  0  0  0  0
 24 27  1  0  0  0  0
 24 54  1  0  0  0  0
 25 29  1  0  0  0  0
 25 55  1  0  0  0  0
 26 30  1  0  0  0  0
 26 35  1  0  0  0  0
 26 56  1  0  0  0  0
 27 57  1  0  0  0  0
 28 31  1  0  0  0  0
 28 36  1  0  0  0  0
 28 58  1  0  0  0  0
 29 34  1  0  0  0  0
 29 59  1  0  0  0  0
 30 37  1  0  0  0  0
 30 60  1  0  0  0  0
 31 32  1  0  0  0  0
 31 61  1  0  0  0  0
 32 33  1  0  0  0  0
 32 62  1  0  0  0  0
 33 63  1  0  0  0  0
 34 41  1  0  0  0  0
 34 64  1  0  0  0  0
 35 38  1  0  0  0  0
 35 65  1  0  0  0  0
 36 47  1  0  0  0  0
 36 66  1  0  0  0  0
 37 43  1  1  0  0  0
 37 67  1  0  0  0  0
 38 44  1  0  0  0  0
 38 68  1  0  0  0  0
 39 40  1  0  0  0  0
 39 69  1  0  0  0  0
 40 42  1  0  0  0  0
 40 71  1  0  0  0  0
 41 72  1  0  0  0  0
 41 73  1  0  0  0  0
 42 45  1  0  0  0  0
 42 75  1  0  0  0  0
 43 76  1  0  0  0  0
 43 77  1  0  0  0  0
 43 78  1  0  0  0  0
 44 79  1  0  0  0  0
 44 80  1  0  0  0  0
 45 46  1  0  0  0  0
 45 81  1  0  0  0  0
 45 82  1  0  0  0  0
 46 50  1  0  0  0  0
 46 83  1  0  0  0  0
 48 51  1  0  0  0  0
 49 52  1  0  0  0  0
 51 91  1  0  0  0  0
 51 92  1  0  0  0  0
 51 93  1  0  0  0  0
 52 95  1  0  0  0  0
 52 96  1  0  0  0  0
 52 97  1  0  0  0  0
 53 98  1  0  0  0  0
 53 99  1  0  0  0  0
 53100  1  0  0  0  0
M  END
> <PUBCHEM_COMPOUND_CID>
90069123

> <PUBCHEM_COMPOUND_CANONICALIZED>
1

> <PUBCHEM_CACTVS_COMPLEXITY>
1280

> <PUBCHEM_CACTVS_HBOND_ACCEPTOR>
21

> <PUBCHEM_CACTVS_HBOND_DONOR>
11

> <PUBCHEM_CACTVS_ROTATABLE_BOND>
13

> <PUBCHEM_CACTVS_SUBSKEYS>
AAADcfB7PgAAAAAAAAAAAAAAAAAAAAAAAAAkSJEgAAAAAAAAAAAAHgAQCAAACDzxgAcCCALABgAIAAGQGAIAAAAAAAAAAIFIAAATEBYAgAQnQAAHNgCXAAH6/C9AAAAAAAAAAAAAAAAAAAAAAAAAAAAAAA==

> <PUBCHEM_IUPAC_OPENEYE_NAME>
(3S,4R,6R)-3-[(2S,4R,5S)-3-acetamido-4-[(2R,4S)-6-carboxy-3-hydroxy-4-methoxy-tetrahydropyran-2-yl]oxy-5-hydroxy-6-(hydroxymethyl)tetrahydropyran-2-yl]oxy-6-[(3S,4R,6S)-5-acetamido-3-hydroxy-2-(hydroxymethyl)-6-methyl-tetrahydropyran-4-yl]oxy-4,5-dihydroxy-tetrahydropyran-2-carboxylic acid

> <PUBCHEM_IUPAC_CAS_NAME>
(3S,4R,6R)-3-[[(2S,4R,5S)-3-acetamido-4-[[(2R,4S)-6-carboxy-3-hydroxy-4-methoxy-2-oxanyl]oxy]-5-hydroxy-6-(hydroxymethyl)-2-oxanyl]oxy]-6-[[(3S,4R,6S)-5-acetamido-3-hydroxy-2-(hydroxymethyl)-6-methyl-4-oxanyl]oxy]-4,5-dihydroxy-2-oxanecarboxylic acid

> <PUBCHEM_IUPAC_NAME_MARKUP>
(3<I>S</I>,4<I>R</I>,6<I>R</I>)-3-[(2<I>S</I>,4<I>R</I>,5<I>S</I>)-3-acetamido-4-[(2<I>R</I>,4<I>S</I>)-6-carboxy-3-hydroxy-4-methoxyoxan-2-yl]oxy-5-hydroxy-6-(hydroxymethyl)oxan-2-yl]oxy-6-[(3<I>S</I>,4<I>R</I>,6<I>S</I>)-5-acetamido-3-hydroxy-2-(hydroxymethyl)-6-methyloxan-4-yl]oxy-4,5-dihydroxyoxane-2-carboxylic acid

> <PUBCHEM_IUPAC_NAME>
(3S,4R,6R)-3-[(2S,4R,5S)-3-acetamido-4-[(2R,4S)-6-carboxy-3-hydroxy-4-methoxyoxan-2-yl]oxy-5-hydroxy-6-(hydroxymethyl)oxan-2-yl]oxy-6-[(3S,4R,6S)-5-acetamido-3-hydroxy-2-(hydroxymethyl)-6-methyloxan-4-yl]oxy-4,5-dihydroxyoxane-2-carboxylic acid

> <PUBCHEM_IUPAC_SYSTEMATIC_NAME>
(3S,4R,6R)-3-[(2S,4R,5S)-3-acetamido-4-[(2R,4S)-6-carboxy-4-methoxy-3-oxidanyl-oxan-2-yl]oxy-6-(hydroxymethyl)-5-oxidanyl-oxan-2-yl]oxy-6-[(3S,4R,6S)-5-acetamido-2-(hydroxymethyl)-6-methyl-3-oxidanyl-oxan-4-yl]oxy-4,5-bis(oxidanyl)oxane-2-carboxylic acid

> <PUBCHEM_IUPAC_TRADITIONAL_NAME>
(3S,4R,6R)-3-[(2S,4R,5S)-3-acetamido-4-[(2R,4S)-6-carboxy-3-hydroxy-4-methoxy-tetrahydropyran-2-yl]oxy-5-hydroxy-6-methylol-tetrahydropyran-2-yl]oxy-6-[(2S,4R,5S)-3-acetamido-5-hydroxy-2-methyl-6-methylol-tetrahydropyran-4-yl]oxy-4,5-dihydroxy-tetrahydropyran-2-carboxylic acid

> <PUBCHEM_IUPAC_INCHI>
InChI=1S/C30H48N2O21/c1-8-15(31-9(2)35)22(17(37)13(6-33)47-8)50-30-21(41)20(40)24(25(53-30)27(44)45)52-28-16(32-10(3)36)23(18(38)14(7-34)49-28)51-29-19(39)11(46-4)5-12(48-29)26(42)43/h8,11-25,28-30,33-34,37-41H,5-7H2,1-4H3,(H,31,35)(H,32,36)(H,42,43)(H,44,45)/t8-,11-,12?,13?,14?,15?,16?,17+,18+,19?,20+,21?,22+,23+,24-,25?,28-,29-,30+/m0/s1

> <PUBCHEM_IUPAC_INCHIKEY>
FYZBNSSOHIZVPA-LKQNWXEBSA-N

> <PUBCHEM_XLOGP3_AA>
-5.5

> <PUBCHEM_EXACT_MASS>
772.27495654

> <PUBCHEM_MOLECULAR_FORMULA>
C30H48N2O21

> <PUBCHEM_MOLECULAR_WEIGHT>
772.7

> <PUBCHEM_OPENEYE_CAN_SMILES>
CC1C(C(C(C(O1)CO)O)OC2C(C(C(C(O2)C(=O)O)OC3C(C(C(C(O3)CO)O)OC4C(C(CC(O4)C(=O)O)OC)O)NC(=O)C)O)O)NC(=O)C

> <PUBCHEM_OPENEYE_ISO_SMILES>
C[C@H]1C([C@H]([C@@H](C(O1)CO)O)O[C@H]2C([C@H]([C@@H](C(O2)C(=O)O)O[C@H]3C([C@H]([C@@H](C(O3)CO)O)O[C@H]4C([C@H](CC(O4)C(=O)O)OC)O)NC(=O)C)O)O)NC(=O)C

> <PUBCHEM_CACTVS_TPSA>
348

> <PUBCHEM_MONOISOTOPIC_WEIGHT>
772.27495654

> <PUBCHEM_TOTAL_CHARGE>
0

> <PUBCHEM_HEAVY_ATOM_COUNT>
53

> <PUBCHEM_ATOM_DEF_STEREO_COUNT>
11

> <PUBCHEM_ATOM_UDEF_STEREO_COUNT>
8

> <PUBCHEM_BOND_DEF_STEREO_COUNT>
0

> <PUBCHEM_BOND_UDEF_STEREO_COUNT>
0

> <PUBCHEM_ISOTOPIC_ATOM_COUNT>
0

> <PUBCHEM_COMPONENT_COUNT>
1

> <PUBCHEM_CACTVS_TAUTO_COUNT>
-1

> <PUBCHEM_COORDINATE_TYPE>
1
5
255

> <PUBCHEM_BONDANNOTATIONS>
27  1  6
28  1  6
32  10  3
35  11  6
40  12  3
42  13  6
26  2  5
33  2  5
24  22  3
30  23  3
34  41  3
36  47  3
37  43  5
38  44  3
25  4  6
39  4  6
46  50  3
29  7  5
31  8  5

$$$$
