 
  -OEChem-10192103502D

 42 43  0     0  0  0  0  0  0999 V2000
    2.8660   -0.5000    0.0000 O   0  0  0  0  0  0  0  0  0  0  0  0
    6.3301    0.5000    0.0000 O   0  0  0  0  0  0  0  0  0  0  0  0
    2.8660   -3.5000    0.0000 O   0  0  0  0  0  0  0  0  0  0  0  0
    6.3301    3.5000    0.0000 O   0  0  0  0  0  0  0  0  0  0  0  0
    2.0000   -2.0000    0.0000 O   0  0  0  0  0  0  0  0  0  0  0  0
    7.1962    2.0000    0.0000 O   0  0  0  0  0  0  0  0  0  0  0  0
    4.5981   -0.5000    0.0000 C   0  0  0  0  0  0  0  0  0  0  0  0
    4.5981    0.5000    0.0000 C   0  0  0  0  0  0  0  0  0  0  0  0
    3.7320   -1.0000    0.0000 C   0  0  0  0  0  0  0  0  0  0  0  0
    5.4641    1.0000    0.0000 C   0  0  0  0  0  0  0  0  0  0  0  0
    3.7320   -2.0000    0.0000 C   0  0  0  0  0  0  0  0  0  0  0  0
    5.4641    2.0000    0.0000 C   0  0  0  0  0  0  0  0  0  0  0  0
    5.4641   -1.0000    0.0000 C   0  0  0  0  0  0  0  0  0  0  0  0
    3.7320    1.0000    0.0000 C   0  0  0  0  0  0  0  0  0  0  0  0
    4.5981   -2.5000    0.0000 C   0  0  0  0  0  0  0  0  0  0  0  0
    4.5981    2.5000    0.0000 C   0  0  0  0  0  0  0  0  0  0  0  0
    5.4641   -2.0000    0.0000 C   0  0  0  0  0  0  0  0  0  0  0  0
    3.7320    2.0000    0.0000 C   0  0  0  0  0  0  0  0  0  0  0  0
    2.8660   -2.5000    0.0000 C   0  0  0  0  0  0  0  0  0  0  0  0
    6.3301    2.5000    0.0000 C   0  0  0  0  0  0  0  0  0  0  0  0
    2.0000   -1.0000    0.0000 C   0  0  0  0  0  0  0  0  0  0  0  0
    7.1962    1.0000    0.0000 C   0  0  0  0  0  0  0  0  0  0  0  0
    2.0000   -4.0000    0.0000 C   0  0  0  0  0  0  0  0  0  0  0  0
    7.1962    4.0000    0.0000 C   0  0  0  0  0  0  0  0  0  0  0  0
    6.0010   -0.6900    0.0000 H   0  0  0  0  0  0  0  0  0  0  0  0
    3.1951    0.6900    0.0000 H   0  0  0  0  0  0  0  0  0  0  0  0
    4.5981   -3.1200    0.0000 H   0  0  0  0  0  0  0  0  0  0  0  0
    4.5981    3.1200    0.0000 H   0  0  0  0  0  0  0  0  0  0  0  0
    6.0010   -2.3100    0.0000 H   0  0  0  0  0  0  0  0  0  0  0  0
    3.1951    2.3100    0.0000 H   0  0  0  0  0  0  0  0  0  0  0  0
    1.6900   -0.4631    0.0000 H   0  0  0  0  0  0  0  0  0  0  0  0
    1.4631   -1.3100    0.0000 H   0  0  0  0  0  0  0  0  0  0  0  0
    2.3100   -1.5369    0.0000 H   0  0  0  0  0  0  0  0  0  0  0  0
    7.5062    0.4631    0.0000 H   0  0  0  0  0  0  0  0  0  0  0  0
    7.7331    1.3100    0.0000 H   0  0  0  0  0  0  0  0  0  0  0  0
    6.8862    1.5369    0.0000 H   0  0  0  0  0  0  0  0  0  0  0  0
    1.6900   -3.4631    0.0000 H   0  0  0  0  0  0  0  0  0  0  0  0
    1.4631   -4.3100    0.0000 H   0  0  0  0  0  0  0  0  0  0  0  0
    2.3100   -4.5369    0.0000 H   0  0  0  0  0  0  0  0  0  0  0  0
    7.5062    3.4631    0.0000 H   0  0  0  0  0  0  0  0  0  0  0  0
    7.7331    4.3100    0.0000 H   0  0  0  0  0  0  0  0  0  0  0  0
    6.8862    4.5369    0.0000 H   0  0  0  0  0  0  0  0  0  0  0  0
  1  9  1  0  0  0  0
  1 21  1  0  0  0  0
  2 10  1  0  0  0  0
  2 22  1  0  0  0  0
  3 19  1  0  0  0  0
  3 23  1  0  0  0  0
  4 20  1  0  0  0  0
  4 24  1  0  0  0  0
  5 19  2  0  0  0  0
  6 20  2  0  0  0  0
  7  8  1  0  0  0  0
  7  9  2  0  0  0  0
  7 13  1  0  0  0  0
  8 10  2  0  0  0  0
  8 14  1  0  0  0  0
  9 11  1  0  0  0  0
 10 12  1  0  0  0  0
 11 15  2  0  0  0  0
 11 19  1  0  0  0  0
 12 16  2  0  0  0  0
 12 20  1  0  0  0  0
 13 17  2  0  0  0  0
 13 25  1  0  0  0  0
 14 18  2  0  0  0  0
 14 26  1  0  0  0  0
 15 17  1  0  0  0  0
 15 27  1  0  0  0  0
 16 18  1  0  0  0  0
 16 28  1  0  0  0  0
 17 29  1  0  0  0  0
 18 30  1  0  0  0  0
 21 31  1  0  0  0  0
 21 32  1  0  0  0  0
 21 33  1  0  0  0  0
 22 34  1  0  0  0  0
 22 35  1  0  0  0  0
 22 36  1  0  0  0  0
 23 37  1  0  0  0  0
 23 38  1  0  0  0  0
 23 39  1  0  0  0  0
 24 40  1  0  0  0  0
 24 41  1  0  0  0  0
 24 42  1  0  0  0  0
M  END
> <PUBCHEM_COMPOUND_CID>
134129713

> <PUBCHEM_COMPOUND_CANONICALIZED>
1

> <PUBCHEM_CACTVS_COMPLEXITY>
397

> <PUBCHEM_CACTVS_HBOND_ACCEPTOR>
6

> <PUBCHEM_CACTVS_HBOND_DONOR>
0

> <PUBCHEM_CACTVS_ROTATABLE_BOND>
7

> <PUBCHEM_CACTVS_SUBSKEYS>
AAADceB4OAAAAAAAAAAAAAAAAAAAAAAAAAAwYAAAAAAAAAABQAAAGgAAAAAADASAmAIyDoAABACIAiDSCAACCAAkIAAIiAEECMgMJzaENRqAMWAl4BEIqYfIyPCOgAACAAAIAAAAAAQAABAAAAAAAAAAAA==

> <PUBCHEM_IUPAC_OPENEYE_NAME>
methyl 2-methoxy-3-(2-methoxy-3-methoxycarbonyl-phenyl)benzoate

> <PUBCHEM_IUPAC_CAS_NAME>
2-methoxy-3-(2-methoxy-3-methoxycarbonylphenyl)benzoic acid methyl ester

> <PUBCHEM_IUPAC_NAME_MARKUP>
methyl 2-methoxy-3-(2-methoxy-3-methoxycarbonylphenyl)benzoate

> <PUBCHEM_IUPAC_NAME>
methyl 2-methoxy-3-(2-methoxy-3-methoxycarbonylphenyl)benzoate

> <PUBCHEM_IUPAC_SYSTEMATIC_NAME>
methyl 2-methoxy-3-(2-methoxy-3-methoxycarbonyl-phenyl)benzoate

> <PUBCHEM_IUPAC_TRADITIONAL_NAME>
3-(3-carbomethoxy-2-methoxy-phenyl)-2-methoxy-benzoic acid methyl ester

> <PUBCHEM_IUPAC_INCHI>
InChI=1S/C18H18O6/c1-21-15-11(7-5-9-13(15)17(19)23-3)12-8-6-10-14(16(12)22-2)18(20)24-4/h5-10H,1-4H3

> <PUBCHEM_IUPAC_INCHIKEY>
LMVPTEDHECWSQS-UHFFFAOYSA-N

> <PUBCHEM_XLOGP3_AA>
3.2

> <PUBCHEM_EXACT_MASS>
330.11033829

> <PUBCHEM_MOLECULAR_FORMULA>
C18H18O6

> <PUBCHEM_MOLECULAR_WEIGHT>
330.3

> <PUBCHEM_OPENEYE_CAN_SMILES>
COC1=C(C=CC=C1C(=O)OC)C2=C(C(=CC=C2)C(=O)OC)OC

> <PUBCHEM_OPENEYE_ISO_SMILES>
COC1=C(C=CC=C1C(=O)OC)C2=C(C(=CC=C2)C(=O)OC)OC

> <PUBCHEM_CACTVS_TPSA>
71.1

> <PUBCHEM_MONOISOTOPIC_WEIGHT>
330.11033829

> <PUBCHEM_TOTAL_CHARGE>
0

> <PUBCHEM_HEAVY_ATOM_COUNT>
24

> <PUBCHEM_ATOM_DEF_STEREO_COUNT>
0

> <PUBCHEM_ATOM_UDEF_STEREO_COUNT>
0

> <PUBCHEM_BOND_DEF_STEREO_COUNT>
0

> <PUBCHEM_BOND_UDEF_STEREO_COUNT>
0

> <PUBCHEM_ISOTOPIC_ATOM_COUNT>
0

> <PUBCHEM_COMPONENT_COUNT>
1

> <PUBCHEM_CACTVS_TAUTO_COUNT>
-1

> <PUBCHEM_COORDINATE_TYPE>
1
5
255

> <PUBCHEM_BONDANNOTATIONS>
10  12  8
11  15  8
12  16  8
13  17  8
14  18  8
15  17  8
16  18  8
7  13  8
7  9  8
8  10  8
8  14  8
9  11  8

$$$$
