 
  -OEChem-10192103562D

 40 41  0     1  0  0  0  0  0999 V2000
    5.1350   -0.7265    0.0000 O   0  0  0  0  0  0  0  0  0  0  0  0
    6.8671   -0.7265    0.0000 O   0  0  0  0  0  0  0  0  0  0  0  0
    6.0580    0.8613    0.0000 O   0  0  0  0  0  0  0  0  0  0  0  0
    6.8671   -2.7265    0.0000 O   0  0  0  0  0  0  0  0  0  0  0  0
    5.1350   -3.7265    0.0000 O   0  0  0  0  0  0  0  0  0  0  0  0
    3.4030   -2.7265    0.0000 O   0  0  0  0  0  0  0  0  0  0  0  0
    8.6271    0.5523    0.0000 O   0  0  0  0  0  0  0  0  0  0  0  0
    2.5369   -1.2265    0.0000 O   0  0  0  0  0  0  0  0  0  0  0  0
    6.1860    3.5349    0.0000 O   0  0  0  0  0  0  0  0  0  0  0  0
    6.0010   -2.2265    0.0000 C   0  0  3  0  0  0  0  0  0  0  0  0
    5.1350   -2.7265    0.0000 C   0  0  3  0  0  0  0  0  0  0  0  0
    6.0010   -1.2265    0.0000 C   0  0  3  0  0  0  0  0  0  0  0  0
    4.2690   -2.2265    0.0000 C   0  0  3  0  0  0  0  0  0  0  0  0
    4.2690   -1.2265    0.0000 C   0  0  3  0  0  0  0  0  0  0  0  0
    6.8671    0.2735    0.0000 C   0  0  3  0  0  0  0  0  0  0  0  0
    7.6761    0.8613    0.0000 C   0  0  1  0  0  0  0  0  0  0  0  0
    7.3671    1.8123    0.0000 C   0  0  0  0  0  0  0  0  0  0  0  0
    6.3671    1.8123    0.0000 C   0  0  1  0  0  0  0  0  0  0  0  0
    3.4030   -0.7265    0.0000 C   0  0  0  0  0  0  0  0  0  0  0  0
    5.7793    2.6214    0.0000 C   0  0  0  0  0  0  0  0  0  0  0  0
    6.0010   -2.8465    0.0000 H   0  0  0  0  0  0  0  0  0  0  0  0
    4.5981   -3.0365    0.0000 H   0  0  0  0  0  0  0  0  0  0  0  0
    6.5380   -1.5365    0.0000 H   0  0  0  0  0  0  0  0  0  0  0  0
    4.2690   -2.8465    0.0000 H   0  0  0  0  0  0  0  0  0  0  0  0
    4.2690   -0.6065    0.0000 H   0  0  0  0  0  0  0  0  0  0  0  0
    7.4195   -0.0080    0.0000 H   0  0  0  0  0  0  0  0  0  0  0  0
    7.7731    0.2489    0.0000 H   0  0  0  0  0  0  0  0  0  0  0  0
    7.9735    1.9412    0.0000 H   0  0  0  0  0  0  0  0  0  0  0  0
    7.3023    2.4290    0.0000 H   0  0  0  0  0  0  0  0  0  0  0  0
    5.7547    1.7154    0.0000 H   0  0  0  0  0  0  0  0  0  0  0  0
    3.8015   -0.2516    0.0000 H   0  0  0  0  0  0  0  0  0  0  0  0
    3.0044   -0.2516    0.0000 H   0  0  0  0  0  0  0  0  0  0  0  0
    5.2653    2.9681    0.0000 H   0  0  0  0  0  0  0  0  0  0  0  0
    5.3486    2.1754    0.0000 H   0  0  0  0  0  0  0  0  0  0  0  0
    6.8671   -3.3465    0.0000 H   0  0  0  0  0  0  0  0  0  0  0  0
    4.5981   -4.0365    0.0000 H   0  0  0  0  0  0  0  0  0  0  0  0
    3.4030   -3.3465    0.0000 H   0  0  0  0  0  0  0  0  0  0  0  0
    9.0879    0.9671    0.0000 H   0  0  0  0  0  0  0  0  0  0  0  0
    2.0000   -0.9165    0.0000 H   0  0  0  0  0  0  0  0  0  0  0  0
    5.8216    4.0365    0.0000 H   0  0  0  0  0  0  0  0  0  0  0  0
  1 12  1  0  0  0  0
  1 14  1  0  0  0  0
  2 12  1  0  0  0  0
  2 15  1  0  0  0  0
  3 15  1  0  0  0  0
  3 18  1  0  0  0  0
  4 10  1  0  0  0  0
  4 35  1  0  0  0  0
  5 11  1  0  0  0  0
  5 36  1  0  0  0  0
  6 13  1  0  0  0  0
  6 37  1  0  0  0  0
 16  7  1  1  0  0  0
  7 38  1  0  0  0  0
  8 19  1  0  0  0  0
  8 39  1  0  0  0  0
  9 20  1  0  0  0  0
  9 40  1  0  0  0  0
 10 11  1  0  0  0  0
 10 12  1  0  0  0  0
 10 21  1  0  0  0  0
 11 13  1  0  0  0  0
 11 22  1  0  0  0  0
 12 23  1  0  0  0  0
 13 14  1  0  0  0  0
 13 24  1  0  0  0  0
 14 19  1  0  0  0  0
 14 25  1  0  0  0  0
 15 16  1  0  0  0  0
 15 26  1  0  0  0  0
 16 17  1  0  0  0  0
 16 27  1  0  0  0  0
 17 18  1  0  0  0  0
 17 28  1  0  0  0  0
 17 29  1  0  0  0  0
 18 20  1  6  0  0  0
 18 30  1  0  0  0  0
 19 31  1  0  0  0  0
 19 32  1  0  0  0  0
 20 33  1  0  0  0  0
 20 34  1  0  0  0  0
M  END
> <PUBCHEM_COMPOUND_CID>
91557427

> <PUBCHEM_COMPOUND_CANONICALIZED>
1

> <PUBCHEM_CACTVS_COMPLEXITY>
314

> <PUBCHEM_CACTVS_HBOND_ACCEPTOR>
9

> <PUBCHEM_CACTVS_HBOND_DONOR>
6

> <PUBCHEM_CACTVS_ROTATABLE_BOND>
4

> <PUBCHEM_CACTVS_SUBSKEYS>
AAADceBwPAAAAAAAAAAAAAAAAAAAASAAAAAkAAAAAAAAAAAAAAAAGgAACAAACBSwgAMACAAABgAAAAAAAAAAAAAAAAAAAAAAAAAREAIAAAAiQAAFAAAHAAHAYAwAAAAAAAAAAAAAAAAAAAAAAAAAAAAAAA==

> <PUBCHEM_IUPAC_OPENEYE_NAME>
2-[(3R,5S)-3-hydroxy-5-(hydroxymethyl)tetrahydrofuran-2-yl]oxy-6-(hydroxymethyl)tetrahydropyran-3,4,5-triol

> <PUBCHEM_IUPAC_CAS_NAME>
2-[[(3R,5S)-3-hydroxy-5-(hydroxymethyl)-2-oxolanyl]oxy]-6-(hydroxymethyl)oxane-3,4,5-triol

> <PUBCHEM_IUPAC_NAME_MARKUP>
2-[(3<I>R</I>,5<I>S</I>)-3-hydroxy-5-(hydroxymethyl)oxolan-2-yl]oxy-6-(hydroxymethyl)oxane-3,4,5-triol

> <PUBCHEM_IUPAC_NAME>
2-[(3R,5S)-3-hydroxy-5-(hydroxymethyl)oxolan-2-yl]oxy-6-(hydroxymethyl)oxane-3,4,5-triol

> <PUBCHEM_IUPAC_SYSTEMATIC_NAME>
2-(hydroxymethyl)-6-[(3R,5S)-5-(hydroxymethyl)-3-oxidanyl-oxolan-2-yl]oxy-oxane-3,4,5-triol

> <PUBCHEM_IUPAC_TRADITIONAL_NAME>
2-[(3R,5S)-3-hydroxy-5-methylol-tetrahydrofuran-2-yl]oxy-6-methylol-tetrahydropyran-3,4,5-triol

> <PUBCHEM_IUPAC_INCHI>
InChI=1S/C11H20O9/c12-2-4-1-5(14)10(18-4)20-11-9(17)8(16)7(15)6(3-13)19-11/h4-17H,1-3H2/t4-,5+,6?,7?,8?,9?,10?,11?/m0/s1

> <PUBCHEM_IUPAC_INCHIKEY>
MBEYMRBFRFTZOQ-SJDQJOARSA-N

> <PUBCHEM_XLOGP3_AA>
-3.1

> <PUBCHEM_EXACT_MASS>
296.11073221

> <PUBCHEM_MOLECULAR_FORMULA>
C11H20O9

> <PUBCHEM_MOLECULAR_WEIGHT>
296.27

> <PUBCHEM_OPENEYE_CAN_SMILES>
C1C(OC(C1O)OC2C(C(C(C(O2)CO)O)O)O)CO

> <PUBCHEM_OPENEYE_ISO_SMILES>
C1[C@H](OC([C@@H]1O)OC2C(C(C(C(O2)CO)O)O)O)CO

> <PUBCHEM_CACTVS_TPSA>
149

> <PUBCHEM_MONOISOTOPIC_WEIGHT>
296.11073221

> <PUBCHEM_TOTAL_CHARGE>
0

> <PUBCHEM_HEAVY_ATOM_COUNT>
20

> <PUBCHEM_ATOM_DEF_STEREO_COUNT>
2

> <PUBCHEM_ATOM_UDEF_STEREO_COUNT>
6

> <PUBCHEM_BOND_DEF_STEREO_COUNT>
0

> <PUBCHEM_BOND_UDEF_STEREO_COUNT>
0

> <PUBCHEM_ISOTOPIC_ATOM_COUNT>
0

> <PUBCHEM_COMPONENT_COUNT>
1

> <PUBCHEM_CACTVS_TAUTO_COUNT>
-1

> <PUBCHEM_COORDINATE_TYPE>
1
5
255

> <PUBCHEM_BONDANNOTATIONS>
14  19  3
18  20  6
12  2  3
15  2  3
10  4  3
11  5  3
13  6  3
16  7  5

$$$$
