 
  -OEChem-10192104382D

 76 79  0     1  0  0  0  0  0999 V2000
    6.0010    0.1550    0.0000 O   0  0  0  0  0  0  0  0  0  0  0  0
    7.7331    0.1550    0.0000 O   0  0  0  0  0  0  0  0  0  0  0  0
    4.2690   -1.8450    0.0000 O   0  0  0  0  0  0  0  0  0  0  0  0
    5.1350   -3.3450    0.0000 O   0  0  0  0  0  0  0  0  0  0  0  0
    6.8671    2.6550    0.0000 O   0  0  0  0  0  0  0  0  0  0  0  0
    6.0010   -2.8450    0.0000 O   0  0  0  0  0  0  0  0  0  0  0  0
    7.7331   -1.8450    0.0000 O   0  0  0  0  0  0  0  0  0  0  0  0
    9.4651    1.1550    0.0000 O   0  0  0  0  0  0  0  0  0  0  0  0
    2.5369   -2.8450    0.0000 O   0  0  0  0  0  0  0  0  0  0  0  0
    9.4651    3.1550    0.0000 O   0  0  0  0  0  0  0  0  0  0  0  0
    2.5369   -4.8450    0.0000 O   0  0  0  0  0  0  0  0  0  0  0  0
    7.7331    4.1550    0.0000 O   0  0  0  0  0  0  0  0  0  0  0  0
    4.2690   -5.8450    0.0000 O   0  0  0  0  0  0  0  0  0  0  0  0
    4.2690    1.1550    0.0000 O   0  0  0  0  0  0  0  0  0  0  0  0
    5.1350    1.6550    0.0000 O   0  0  0  0  0  0  0  0  0  0  0  0
    6.0010   -5.8450    0.0000 O   0  0  0  0  0  0  0  0  0  0  0  0
    5.1350   -1.3450    0.0000 C   0  0  1  0  0  0  0  0  0  0  0  0
    6.0010   -1.8450    0.0000 C   0  0  1  0  0  0  0  0  0  0  0  0
    6.8671   -1.3450    0.0000 C   0  0  2  0  0  0  0  0  0  0  0  0
    5.1350   -0.3450    0.0000 C   0  0  1  0  0  0  0  0  0  0  0  0
    6.8671   -0.3450    0.0000 C   0  0  1  0  0  0  0  0  0  0  0  0
    7.7331    1.1550    0.0000 C   0  0  1  0  0  0  0  0  0  0  0  0
    8.5991    1.6550    0.0000 C   0  0  1  0  0  0  0  0  0  0  0  0
    4.2690   -2.8450    0.0000 C   0  0  1  0  0  0  0  0  0  0  0  0
    6.8671    1.6550    0.0000 C   0  0  1  0  0  0  0  0  0  0  0  0
    3.4030   -3.3450    0.0000 C   0  0  1  0  0  0  0  0  0  0  0  0
    8.5991    2.6550    0.0000 C   0  0  2  0  0  0  0  0  0  0  0  0
    3.4030   -4.3450    0.0000 C   0  0  2  0  0  0  0  0  0  0  0  0
    4.2690   -4.8450    0.0000 C   0  0  1  0  0  0  0  0  0  0  0  0
    5.1350   -4.3450    0.0000 C   0  0  1  0  0  0  0  0  0  0  0  0
    7.7331    3.1550    0.0000 C   0  0  1  0  0  0  0  0  0  0  0  0
    4.2690    0.1550    0.0000 C   0  0  0  0  0  0  0  0  0  0  0  0
    6.0010    1.1550    0.0000 C   0  0  0  0  0  0  0  0  0  0  0  0
    6.0010   -4.8450    0.0000 C   0  0  0  0  0  0  0  0  0  0  0  0
    6.8671    4.6550    0.0000 C   0  0  0  0  0  0  0  0  0  0  0  0
    6.0010    4.1550    0.0000 C   0  0  0  0  0  0  0  0  0  0  0  0
    6.8671    5.6550    0.0000 C   0  0  0  0  0  0  0  0  0  0  0  0
    5.1350    4.6550    0.0000 C   0  0  0  0  0  0  0  0  0  0  0  0
    6.0010    6.1550    0.0000 C   0  0  0  0  0  0  0  0  0  0  0  0
    5.1350    5.6550    0.0000 C   0  0  0  0  0  0  0  0  0  0  0  0
    5.1350   -1.9650    0.0000 H   0  0  0  0  0  0  0  0  0  0  0  0
    5.4641   -2.1550    0.0000 H   0  0  0  0  0  0  0  0  0  0  0  0
    6.8671   -1.9650    0.0000 H   0  0  0  0  0  0  0  0  0  0  0  0
    5.1350    0.2750    0.0000 H   0  0  0  0  0  0  0  0  0  0  0  0
    7.4040   -0.6550    0.0000 H   0  0  0  0  0  0  0  0  0  0  0  0
    7.1962    0.8450    0.0000 H   0  0  0  0  0  0  0  0  0  0  0  0
    8.5991    1.0350    0.0000 H   0  0  0  0  0  0  0  0  0  0  0  0
    3.7320   -2.5350    0.0000 H   0  0  0  0  0  0  0  0  0  0  0  0
    6.3301    1.9650    0.0000 H   0  0  0  0  0  0  0  0  0  0  0  0
    3.4030   -2.7250    0.0000 H   0  0  0  0  0  0  0  0  0  0  0  0
    8.5991    3.2750    0.0000 H   0  0  0  0  0  0  0  0  0  0  0  0
    3.4030   -4.9650    0.0000 H   0  0  0  0  0  0  0  0  0  0  0  0
    4.8059   -5.1550    0.0000 H   0  0  0  0  0  0  0  0  0  0  0  0
    5.6720   -4.0350    0.0000 H   0  0  0  0  0  0  0  0  0  0  0  0
    7.1962    3.4650    0.0000 H   0  0  0  0  0  0  0  0  0  0  0  0
    3.6584    0.2627    0.0000 H   0  0  0  0  0  0  0  0  0  0  0  0
    4.0569   -0.4276    0.0000 H   0  0  0  0  0  0  0  0  0  0  0  0
    5.6025    0.6801    0.0000 H   0  0  0  0  0  0  0  0  0  0  0  0
    6.3996    0.6801    0.0000 H   0  0  0  0  0  0  0  0  0  0  0  0
    6.5380   -3.1550    0.0000 H   0  0  0  0  0  0  0  0  0  0  0  0
    8.2700   -1.5350    0.0000 H   0  0  0  0  0  0  0  0  0  0  0  0
    6.6116   -4.9527    0.0000 H   0  0  0  0  0  0  0  0  0  0  0  0
    6.2131   -4.2624    0.0000 H   0  0  0  0  0  0  0  0  0  0  0  0
   10.0021    1.4650    0.0000 H   0  0  0  0  0  0  0  0  0  0  0  0
    2.0000   -3.1550    0.0000 H   0  0  0  0  0  0  0  0  0  0  0  0
    9.4651    3.7750    0.0000 H   0  0  0  0  0  0  0  0  0  0  0  0
    2.5369   -5.4650    0.0000 H   0  0  0  0  0  0  0  0  0  0  0  0
    3.7320   -6.1550    0.0000 H   0  0  0  0  0  0  0  0  0  0  0  0
    3.7320    1.4650    0.0000 H   0  0  0  0  0  0  0  0  0  0  0  0
    5.1350    2.2750    0.0000 H   0  0  0  0  0  0  0  0  0  0  0  0
    6.5380   -6.1550    0.0000 H   0  0  0  0  0  0  0  0  0  0  0  0
    6.0010    3.5350    0.0000 H   0  0  0  0  0  0  0  0  0  0  0  0
    7.4040    5.9650    0.0000 H   0  0  0  0  0  0  0  0  0  0  0  0
    4.5981    4.3450    0.0000 H   0  0  0  0  0  0  0  0  0  0  0  0
    6.0010    6.7750    0.0000 H   0  0  0  0  0  0  0  0  0  0  0  0
    4.5981    5.9650    0.0000 H   0  0  0  0  0  0  0  0  0  0  0  0
  1 20  1  0  0  0  0
  1 21  1  0  0  0  0
 21  2  1  1  0  0  0
 22  2  1  6  0  0  0
 17  3  1  6  0  0  0
 24  3  1  1  0  0  0
  4 24  1  0  0  0  0
  4 30  1  0  0  0  0
  5 25  1  0  0  0  0
  5 31  1  0  0  0  0
 18  6  1  1  0  0  0
  6 60  1  0  0  0  0
 19  7  1  6  0  0  0
  7 61  1  0  0  0  0
 23  8  1  1  0  0  0
  8 64  1  0  0  0  0
 26  9  1  1  0  0  0
  9 65  1  0  0  0  0
 27 10  1  6  0  0  0
 10 66  1  0  0  0  0
 28 11  1  6  0  0  0
 11 67  1  0  0  0  0
 31 12  1  1  0  0  0
 12 35  1  0  0  0  0
 29 13  1  1  0  0  0
 13 68  1  0  0  0  0
 14 32  1  0  0  0  0
 14 69  1  0  0  0  0
 15 33  1  0  0  0  0
 15 70  1  0  0  0  0
 16 34  1  0  0  0  0
 16 71  1  0  0  0  0
 17 18  1  0  0  0  0
 17 20  1  0  0  0  0
 17 41  1  0  0  0  0
 18 19  1  0  0  0  0
 18 42  1  0  0  0  0
 19 21  1  0  0  0  0
 19 43  1  0  0  0  0
 20 32  1  1  0  0  0
 20 44  1  0  0  0  0
 21 45  1  0  0  0  0
 22 23  1  0  0  0  0
 22 25  1  0  0  0  0
 22 46  1  0  0  0  0
 23 27  1  0  0  0  0
 23 47  1  0  0  0  0
 24 26  1  0  0  0  0
 24 48  1  0  0  0  0
 25 33  1  1  0  0  0
 25 49  1  0  0  0  0
 26 28  1  0  0  0  0
 26 50  1  0  0  0  0
 27 31  1  0  0  0  0
 27 51  1  0  0  0  0
 28 29  1  0  0  0  0
 28 52  1  0  0  0  0
 29 30  1  0  0  0  0
 29 53  1  0  0  0  0
 30 34  1  6  0  0  0
 30 54  1  0  0  0  0
 31 55  1  0  0  0  0
 32 56  1  0  0  0  0
 32 57  1  0  0  0  0
 33 58  1  0  0  0  0
 33 59  1  0  0  0  0
 34 62  1  0  0  0  0
 34 63  1  0  0  0  0
 35 36  2  0  0  0  0
 35 37  1  0  0  0  0
 36 38  1  0  0  0  0
 36 72  1  0  0  0  0
 37 39  2  0  0  0  0
 37 73  1  0  0  0  0
 38 40  2  0  0  0  0
 38 74  1  0  0  0  0
 39 40  1  0  0  0  0
 39 75  1  0  0  0  0
 40 76  1  0  0  0  0
M  END
> <PUBCHEM_COMPOUND_CID>
191685

> <PUBCHEM_COMPOUND_CANONICALIZED>
1

> <PUBCHEM_CACTVS_COMPLEXITY>
771

> <PUBCHEM_CACTVS_HBOND_ACCEPTOR>
16

> <PUBCHEM_CACTVS_HBOND_DONOR>
10

> <PUBCHEM_CACTVS_ROTATABLE_BOND>
9

> <PUBCHEM_CACTVS_SUBSKEYS>
AAADcfB4PgAAAAAAAAAAAAAAAAAAAAAAAAA0SJEAAAAAAAABAAAAGgAACAAACBSwkAMwDoAABgCAACBCAAACCAAgIAAIiAAGCIgdNiKEMRqieCClwBEPqAfAYAwAAAAAAAAAAAAAAAAAAAAAAAAAAAAAAA==

> <PUBCHEM_IUPAC_OPENEYE_NAME>
(2R,3R,4S,5S,6R)-2-[(2R,3S,4R,5R,6S)-6-[(2R,3S,4R,5R,6S)-4,5-dihydroxy-2-(hydroxymethyl)-6-phenoxy-tetrahydropyran-3-yl]oxy-4,5-dihydroxy-2-(hydroxymethyl)tetrahydropyran-3-yl]oxy-6-(hydroxymethyl)tetrahydropyran-3,4,5-triol

> <PUBCHEM_IUPAC_CAS_NAME>
(2R,3R,4S,5S,6R)-2-[[(2R,3S,4R,5R,6S)-6-[[(2R,3S,4R,5R,6S)-4,5-dihydroxy-2-(hydroxymethyl)-6-phenoxy-3-oxanyl]oxy]-4,5-dihydroxy-2-(hydroxymethyl)-3-oxanyl]oxy]-6-(hydroxymethyl)oxane-3,4,5-triol

> <PUBCHEM_IUPAC_NAME_MARKUP>
(2<I>R</I>,3<I>R</I>,4<I>S</I>,5<I>S</I>,6<I>R</I>)-2-[(2<I>R</I>,3<I>S</I>,4<I>R</I>,5<I>R</I>,6<I>S</I>)-6-[(2<I>R</I>,3<I>S</I>,4<I>R</I>,5<I>R</I>,6<I>S</I>)-4,5-dihydroxy-2-(hydroxymethyl)-6-phenoxyoxan-3-yl]oxy-4,5-dihydroxy-2-(hydroxymethyl)oxan-3-yl]oxy-6-(hydroxymethyl)oxane-3,4,5-triol

> <PUBCHEM_IUPAC_NAME>
(2R,3R,4S,5S,6R)-2-[(2R,3S,4R,5R,6S)-6-[(2R,3S,4R,5R,6S)-4,5-dihydroxy-2-(hydroxymethyl)-6-phenoxyoxan-3-yl]oxy-4,5-dihydroxy-2-(hydroxymethyl)oxan-3-yl]oxy-6-(hydroxymethyl)oxane-3,4,5-triol

> <PUBCHEM_IUPAC_SYSTEMATIC_NAME>
(2R,3S,4S,5R,6R)-2-(hydroxymethyl)-6-[(2R,3S,4R,5R,6S)-2-(hydroxymethyl)-6-[(2R,3S,4R,5R,6S)-2-(hydroxymethyl)-4,5-bis(oxidanyl)-6-phenoxy-oxan-3-yl]oxy-4,5-bis(oxidanyl)oxan-3-yl]oxy-oxane-3,4,5-triol

> <PUBCHEM_IUPAC_TRADITIONAL_NAME>
(2R,3R,4S,5S,6R)-2-[(2R,3S,4R,5R,6S)-6-[(2R,3S,4R,5R,6S)-4,5-dihydroxy-2-methylol-6-phenoxy-tetrahydropyran-3-yl]oxy-4,5-dihydroxy-2-methylol-tetrahydropyran-3-yl]oxy-6-methylol-tetrahydropyran-3,4,5-triol

> <PUBCHEM_IUPAC_INCHI>
InChI=1S/C24H36O16/c25-6-10-13(28)14(29)17(32)23(36-10)39-21-12(8-27)38-24(19(34)16(21)31)40-20-11(7-26)37-22(18(33)15(20)30)35-9-4-2-1-3-5-9/h1-5,10-34H,6-8H2/t10-,11-,12-,13-,14+,15-,16-,17-,18-,19-,20-,21-,22-,23-,24+/m1/s1

> <PUBCHEM_IUPAC_INCHIKEY>
QWNCOASHVFFDRG-HIUMSLFHSA-N

> <PUBCHEM_XLOGP3>
-5.2

> <PUBCHEM_EXACT_MASS>
580.20033506

> <PUBCHEM_MOLECULAR_FORMULA>
C24H36O16

> <PUBCHEM_MOLECULAR_WEIGHT>
580.5

> <PUBCHEM_OPENEYE_CAN_SMILES>
C1=CC=C(C=C1)OC2C(C(C(C(O2)CO)OC3C(C(C(C(O3)CO)OC4C(C(C(C(O4)CO)O)O)O)O)O)O)O

> <PUBCHEM_OPENEYE_ISO_SMILES>
C1=CC=C(C=C1)O[C@H]2[C@@H]([C@H]([C@@H]([C@H](O2)CO)O[C@H]3[C@@H]([C@H]([C@@H]([C@H](O3)CO)O[C@@H]4[C@@H]([C@H]([C@@H]([C@H](O4)CO)O)O)O)O)O)O)O

> <PUBCHEM_CACTVS_TPSA>
258

> <PUBCHEM_MONOISOTOPIC_WEIGHT>
580.20033506

> <PUBCHEM_TOTAL_CHARGE>
0

> <PUBCHEM_HEAVY_ATOM_COUNT>
40

> <PUBCHEM_ATOM_DEF_STEREO_COUNT>
15

> <PUBCHEM_ATOM_UDEF_STEREO_COUNT>
0

> <PUBCHEM_BOND_DEF_STEREO_COUNT>
0

> <PUBCHEM_BOND_UDEF_STEREO_COUNT>
0

> <PUBCHEM_ISOTOPIC_ATOM_COUNT>
0

> <PUBCHEM_COMPONENT_COUNT>
1

> <PUBCHEM_CACTVS_TAUTO_COUNT>
1

> <PUBCHEM_COORDINATE_TYPE>
1
5
255

> <PUBCHEM_BONDANNOTATIONS>
27  10  6
28  11  6
31  12  5
29  13  5
21  2  5
22  2  6
20  32  5
25  33  5
17  3  6
24  3  5
30  34  6
35  36  8
35  37  8
36  38  8
37  39  8
38  40  8
39  40  8
18  6  5
19  7  6
23  8  5
26  9  5

$$$$
