 
  -OEChem-10192103422D

102103  0     1  0  0  0  0  0999 V2000
   11.8923    1.5196    0.0000 O   0  0  0  0  0  0  0  0  0  0  0  0
   11.5263   -0.8464    0.0000 O   0  0  0  0  0  0  0  0  0  0  0  0
   14.1136    0.1924    0.0000 O   0  0  0  0  0  0  0  0  0  0  0  0
   12.6002   -0.3245    0.0000 O   0  0  0  0  0  0  0  0  0  0  0  0
   14.3410    2.3560    0.0000 O   0  0  0  0  0  0  0  0  0  0  0  0
    9.7942   -0.8464    0.0000 O   0  0  0  0  0  0  0  0  0  0  0  0
   10.6603    0.6536    0.0000 O   0  0  0  0  0  0  0  0  0  0  0  0
    8.0622   -2.8464    0.0000 O   0  0  0  0  0  0  0  0  0  0  0  0
   11.5263   -2.8464    0.0000 O   0  0  0  0  0  0  0  0  0  0  0  0
    9.7942   -3.8464    0.0000 O   0  0  0  0  0  0  0  0  0  0  0  0
   11.4025    3.5499    0.0000 O   0  0  0  0  0  0  0  0  0  0  0  0
    8.0622    0.1536    0.0000 O   0  0  0  0  0  0  0  0  0  0  0  0
   15.2726    1.4796    0.0000 O   0  0  0  0  0  0  0  0  0  0  0  0
   13.4750    3.8560    0.0000 O   0  0  0  0  0  0  0  0  0  0  0  0
   11.5263    2.1536    0.0000 O   0  0  0  0  0  0  0  0  0  0  0  0
    7.1962   -1.3464    0.0000 O   0  0  0  0  0  0  0  0  0  0  0  0
   12.3923    0.6536    0.0000 C   0  0  1  0  0  0  0  0  0  0  0  0
   13.3705    0.8615    0.0000 C   0  0  2  0  0  0  0  0  0  0  0  0
   13.4750    1.8560    0.0000 C   0  0  1  0  0  0  0  0  0  0  0  0
   12.5614    2.2628    0.0000 C   0  0  1  0  0  0  0  0  0  0  0  0
   11.5263    0.1536    0.0000 C   0  0  3  0  0  0  0  0  0  0  0  0
   10.6603   -1.3464    0.0000 C   0  0  1  0  0  0  0  0  0  0  0  0
   10.6603   -2.3464    0.0000 C   0  0  1  0  0  0  0  0  0  0  0  0
    9.7942   -2.8464    0.0000 C   0  0  2  0  0  0  0  0  0  0  0  0
    8.9282   -2.3464    0.0000 C   0  0  1  0  0  0  0  0  0  0  0  0
    8.9282   -1.3464    0.0000 C   0  0  1  0  0  0  0  0  0  0  0  0
   12.3535    3.2409    0.0000 C   0  0  0  0  0  0  0  0  0  0  0  0
    8.0622   -0.8464    0.0000 C   0  0  0  0  0  0  0  0  0  0  0  0
   15.0647    0.5014    0.0000 C   0  0  0  0  0  0  0  0  0  0  0  0
   14.3410    3.3560    0.0000 C   0  0  0  0  0  0  0  0  0  0  0  0
   15.8078   -0.1677    0.0000 C   0  0  0  0  0  0  0  0  0  0  0  0
   16.7589    0.1413    0.0000 C   0  0  0  0  0  0  0  0  0  0  0  0
   10.6603    1.6536    0.0000 C   0  0  0  0  0  0  0  0  0  0  0  0
    7.1962   -2.3464    0.0000 C   0  0  0  0  0  0  0  0  0  0  0  0
   17.5020   -0.5278    0.0000 C   0  0  0  0  0  0  0  0  0  0  0  0
    6.3301   -2.8464    0.0000 C   0  0  0  0  0  0  0  0  0  0  0  0
   18.4531   -0.2188    0.0000 C   0  0  3  0  0  0  0  0  0  0  0  0
   15.2070    3.8560    0.0000 C   0  0  0  0  0  0  0  0  0  0  0  0
    5.4641   -2.3464    0.0000 C   0  0  0  0  0  0  0  0  0  0  0  0
    4.5981   -2.8464    0.0000 C   0  0  0  0  0  0  0  0  0  0  0  0
    9.7942    2.1536    0.0000 C   0  0  0  0  0  0  0  0  0  0  0  0
    3.7320   -2.3464    0.0000 C   0  0  3  0  0  0  0  0  0  0  0  0
   19.1962   -0.8880    0.0000 C   0  0  0  0  0  0  0  0  0  0  0  0
   18.6610    0.7593    0.0000 C   0  0  0  0  0  0  0  0  0  0  0  0
    2.8660   -2.8464    0.0000 C   0  0  0  0  0  0  0  0  0  0  0  0
    3.7320   -1.3464    0.0000 C   0  0  0  0  0  0  0  0  0  0  0  0
   20.1473   -0.5789    0.0000 C   0  0  0  0  0  0  0  0  0  0  0  0
    2.0000   -2.3464    0.0000 C   0  0  0  0  0  0  0  0  0  0  0  0
   13.9493    1.0837    0.0000 H   0  0  0  0  0  0  0  0  0  0  0  0
   13.9950    1.5184    0.0000 H   0  0  0  0  0  0  0  0  0  0  0  0
   11.9626    2.4232    0.0000 H   0  0  0  0  0  0  0  0  0  0  0  0
   10.9893   -0.1564    0.0000 H   0  0  0  0  0  0  0  0  0  0  0  0
   11.1972   -1.6564    0.0000 H   0  0  0  0  0  0  0  0  0  0  0  0
   10.6603   -2.9664    0.0000 H   0  0  0  0  0  0  0  0  0  0  0  0
   10.3312   -3.1564    0.0000 H   0  0  0  0  0  0  0  0  0  0  0  0
    8.9282   -2.9664    0.0000 H   0  0  0  0  0  0  0  0  0  0  0  0
    8.9282   -0.7264    0.0000 H   0  0  0  0  0  0  0  0  0  0  0  0
   12.9731    3.2626    0.0000 H   0  0  0  0  0  0  0  0  0  0  0  0
   12.4398    3.8549    0.0000 H   0  0  0  0  0  0  0  0  0  0  0  0
   13.1899   -0.5161    0.0000 H   0  0  0  0  0  0  0  0  0  0  0  0
    7.4516   -0.7387    0.0000 H   0  0  0  0  0  0  0  0  0  0  0  0
    7.8501   -1.4290    0.0000 H   0  0  0  0  0  0  0  0  0  0  0  0
   12.0632   -2.5364    0.0000 H   0  0  0  0  0  0  0  0  0  0  0  0
   10.3312   -4.1564    0.0000 H   0  0  0  0  0  0  0  0  0  0  0  0
   15.3192   -0.5494    0.0000 H   0  0  0  0  0  0  0  0  0  0  0  0
   16.0989   -0.7152    0.0000 H   0  0  0  0  0  0  0  0  0  0  0  0
   11.2736    4.1564    0.0000 H   0  0  0  0  0  0  0  0  0  0  0  0
   17.2474    0.5230    0.0000 H   0  0  0  0  0  0  0  0  0  0  0  0
   16.4678    0.6887    0.0000 H   0  0  0  0  0  0  0  0  0  0  0  0
   17.0134   -0.9095    0.0000 H   0  0  0  0  0  0  0  0  0  0  0  0
   17.7931   -1.0753    0.0000 H   0  0  0  0  0  0  0  0  0  0  0  0
    5.9316   -3.3213    0.0000 H   0  0  0  0  0  0  0  0  0  0  0  0
    6.7287   -3.3213    0.0000 H   0  0  0  0  0  0  0  0  0  0  0  0
   17.9923    0.1960    0.0000 H   0  0  0  0  0  0  0  0  0  0  0  0
    7.5252    0.4636    0.0000 H   0  0  0  0  0  0  0  0  0  0  0  0
   15.5170    3.3191    0.0000 H   0  0  0  0  0  0  0  0  0  0  0  0
   15.7440    4.1660    0.0000 H   0  0  0  0  0  0  0  0  0  0  0  0
   14.8970    4.3930    0.0000 H   0  0  0  0  0  0  0  0  0  0  0  0
    5.8626   -1.8714    0.0000 H   0  0  0  0  0  0  0  0  0  0  0  0
    5.0656   -1.8714    0.0000 H   0  0  0  0  0  0  0  0  0  0  0  0
    4.1996   -3.3213    0.0000 H   0  0  0  0  0  0  0  0  0  0  0  0
    4.9966   -3.3213    0.0000 H   0  0  0  0  0  0  0  0  0  0  0  0
   10.1042    2.6905    0.0000 H   0  0  0  0  0  0  0  0  0  0  0  0
    9.2573    2.4636    0.0000 H   0  0  0  0  0  0  0  0  0  0  0  0
    9.4842    1.6167    0.0000 H   0  0  0  0  0  0  0  0  0  0  0  0
    4.2690   -2.0364    0.0000 H   0  0  0  0  0  0  0  0  0  0  0  0
   18.7076   -1.2697    0.0000 H   0  0  0  0  0  0  0  0  0  0  0  0
   19.4873   -1.4354    0.0000 H   0  0  0  0  0  0  0  0  0  0  0  0
   19.2674    0.6304    0.0000 H   0  0  0  0  0  0  0  0  0  0  0  0
   18.7899    1.3658    0.0000 H   0  0  0  0  0  0  0  0  0  0  0  0
   18.0545    0.8882    0.0000 H   0  0  0  0  0  0  0  0  0  0  0  0
    2.4675   -3.3213    0.0000 H   0  0  0  0  0  0  0  0  0  0  0  0
    3.2646   -3.3213    0.0000 H   0  0  0  0  0  0  0  0  0  0  0  0
    4.3520   -1.3464    0.0000 H   0  0  0  0  0  0  0  0  0  0  0  0
    3.7320   -0.7264    0.0000 H   0  0  0  0  0  0  0  0  0  0  0  0
    3.1120   -1.3464    0.0000 H   0  0  0  0  0  0  0  0  0  0  0  0
   20.3389   -1.1686    0.0000 H   0  0  0  0  0  0  0  0  0  0  0  0
   20.7369   -0.3873    0.0000 H   0  0  0  0  0  0  0  0  0  0  0  0
   19.9557    0.0107    0.0000 H   0  0  0  0  0  0  0  0  0  0  0  0
    2.3100   -1.8095    0.0000 H   0  0  0  0  0  0  0  0  0  0  0  0
    1.4631   -2.0364    0.0000 H   0  0  0  0  0  0  0  0  0  0  0  0
    1.6900   -2.8833    0.0000 H   0  0  0  0  0  0  0  0  0  0  0  0
  1 17  1  0  0  0  0
  1 20  1  0  0  0  0
  2 21  1  0  0  0  0
 22  2  1  6  0  0  0
 18  3  1  6  0  0  0
  3 29  1  0  0  0  0
 17  4  1  6  0  0  0
  4 60  1  0  0  0  0
 19  5  1  1  0  0  0
  5 30  1  0  0  0  0
  6 22  1  0  0  0  0
  6 26  1  0  0  0  0
  7 21  1  0  0  0  0
  7 33  1  0  0  0  0
 25  8  1  6  0  0  0
  8 34  1  0  0  0  0
 23  9  1  6  0  0  0
  9 63  1  0  0  0  0
 24 10  1  1  0  0  0
 10 64  1  0  0  0  0
 11 27  1  0  0  0  0
 11 67  1  0  0  0  0
 12 28  1  0  0  0  0
 12 75  1  0  0  0  0
 13 29  2  0  0  0  0
 14 30  2  0  0  0  0
 15 33  2  0  0  0  0
 16 34  2  0  0  0  0
 17 18  1  0  0  0  0
 17 21  1  0  0  0  0
 18 19  1  0  0  0  0
 18 49  1  0  0  0  0
 19 20  1  0  0  0  0
 19 50  1  0  0  0  0
 20 27  1  6  0  0  0
 20 51  1  0  0  0  0
 21 52  1  0  0  0  0
 22 23  1  0  0  0  0
 22 53  1  0  0  0  0
 23 24  1  0  0  0  0
 23 54  1  0  0  0  0
 24 25  1  0  0  0  0
 24 55  1  0  0  0  0
 25 26  1  0  0  0  0
 25 56  1  0  0  0  0
 26 28  1  1  0  0  0
 26 57  1  0  0  0  0
 27 58  1  0  0  0  0
 27 59  1  0  0  0  0
 28 61  1  0  0  0  0
 28 62  1  0  0  0  0
 29 31  1  0  0  0  0
 30 38  1  0  0  0  0
 31 32  1  0  0  0  0
 31 65  1  0  0  0  0
 31 66  1  0  0  0  0
 32 35  1  0  0  0  0
 32 68  1  0  0  0  0
 32 69  1  0  0  0  0
 33 41  1  0  0  0  0
 34 36  1  0  0  0  0
 35 37  1  0  0  0  0
 35 70  1  0  0  0  0
 35 71  1  0  0  0  0
 36 39  1  0  0  0  0
 36 72  1  0  0  0  0
 36 73  1  0  0  0  0
 37 43  1  0  0  0  0
 37 44  1  0  0  0  0
 37 74  1  0  0  0  0
 38 76  1  0  0  0  0
 38 77  1  0  0  0  0
 38 78  1  0  0  0  0
 39 40  1  0  0  0  0
 39 79  1  0  0  0  0
 39 80  1  0  0  0  0
 40 42  1  0  0  0  0
 40 81  1  0  0  0  0
 40 82  1  0  0  0  0
 41 83  1  0  0  0  0
 41 84  1  0  0  0  0
 41 85  1  0  0  0  0
 42 45  1  0  0  0  0
 42 46  1  0  0  0  0
 42 86  1  0  0  0  0
 43 47  1  0  0  0  0
 43 87  1  0  0  0  0
 43 88  1  0  0  0  0
 44 89  1  0  0  0  0
 44 90  1  0  0  0  0
 44 91  1  0  0  0  0
 45 48  1  0  0  0  0
 45 92  1  0  0  0  0
 45 93  1  0  0  0  0
 46 94  1  0  0  0  0
 46 95  1  0  0  0  0
 46 96  1  0  0  0  0
 47 97  1  0  0  0  0
 47 98  1  0  0  0  0
 47 99  1  0  0  0  0
 48100  1  0  0  0  0
 48101  1  0  0  0  0
 48102  1  0  0  0  0
M  END
> <PUBCHEM_COMPOUND_CID>
10484816

> <PUBCHEM_COMPOUND_CANONICALIZED>
1

> <PUBCHEM_CACTVS_COMPLEXITY>
1040

> <PUBCHEM_CACTVS_HBOND_ACCEPTOR>
16

> <PUBCHEM_CACTVS_HBOND_DONOR>
5

> <PUBCHEM_CACTVS_ROTATABLE_BOND>
23

> <PUBCHEM_CACTVS_SUBSKEYS>
AAADcfB8PgAAAAAAAAAAAAAAAAAAASAAAAAkAAAAAAAAAAAAAAAAGgAACAAADRSwgAMCCAAABgAIAACQCAAAAAAAAAAAAAEAAAAREBIAAAAiQAAFAAAHAAHI6DyOAAAAAAAAAAAAAAAAAAAAAAAAAAAAAA==

> <PUBCHEM_IUPAC_OPENEYE_NAME>
[(2R,3S,4R,5R,6R)-6-[acetoxy-[(2S,3S,4R,5R)-4-acetoxy-2-hydroxy-5-(hydroxymethyl)-3-(5-methylheptanoyloxy)tetrahydrofuran-2-yl]methoxy]-4,5-dihydroxy-2-(hydroxymethyl)tetrahydropyran-3-yl] 5-methylheptanoate

> <PUBCHEM_IUPAC_CAS_NAME>
5-methylheptanoic acid [(2R,3S,4R,5R,6R)-6-[acetyloxy-[(2S,3S,4R,5R)-4-acetyloxy-2-hydroxy-5-(hydroxymethyl)-3-(5-methyl-1-oxoheptoxy)-2-oxolanyl]methoxy]-4,5-dihydroxy-2-(hydroxymethyl)-3-oxanyl] ester

> <PUBCHEM_IUPAC_NAME_MARKUP>
[(2<I>R</I>,3<I>S</I>,4<I>R</I>,5<I>R</I>,6<I>R</I>)-6-[acetyloxy-[(2<I>S</I>,3<I>S</I>,4<I>R</I>,5<I>R</I>)-4-acetyloxy-2-hydroxy-5-(hydroxymethyl)-3-(5-methylheptanoyloxy)oxolan-2-yl]methoxy]-4,5-dihydroxy-2-(hydroxymethyl)oxan-3-yl] 5-methylheptanoate

> <PUBCHEM_IUPAC_NAME>
[(2R,3S,4R,5R,6R)-6-[acetyloxy-[(2S,3S,4R,5R)-4-acetyloxy-2-hydroxy-5-(hydroxymethyl)-3-(5-methylheptanoyloxy)oxolan-2-yl]methoxy]-4,5-dihydroxy-2-(hydroxymethyl)oxan-3-yl] 5-methylheptanoate

> <PUBCHEM_IUPAC_SYSTEMATIC_NAME>
[(2R,3S,4R,5R,6R)-6-[acetyloxy-[(2S,3S,4R,5R)-4-acetyloxy-5-(hydroxymethyl)-3-(5-methylheptanoyloxy)-2-oxidanyl-oxolan-2-yl]methoxy]-2-(hydroxymethyl)-4,5-bis(oxidanyl)oxan-3-yl] 5-methylheptanoate

> <PUBCHEM_IUPAC_TRADITIONAL_NAME>
5-methylenanthic acid [(2R,3S,4R,5R,6R)-6-[acetoxy-[(2S,3S,4R,5R)-4-acetoxy-2-hydroxy-3-(5-methylheptanoyloxy)-5-methylol-tetrahydrofuran-2-yl]methoxy]-4,5-dihydroxy-2-methylol-tetrahydropyran-3-yl] ester

> <PUBCHEM_IUPAC_INCHI>
InChI=1S/C32H54O16/c1-7-17(3)11-9-13-23(37)45-27-21(15-33)44-30(26(40)25(27)39)47-31(43-20(6)36)32(41)29(28(42-19(5)35)22(16-34)48-32)46-24(38)14-10-12-18(4)8-2/h17-18,21-22,25-31,33-34,39-41H,7-16H2,1-6H3/t17?,18?,21-,22-,25-,26-,27-,28-,29+,30-,31?,32+/m1/s1

> <PUBCHEM_IUPAC_INCHIKEY>
RDWMQGMIJUGFHU-VOQKKDJYSA-N

> <PUBCHEM_XLOGP3_AA>
1.7

> <PUBCHEM_EXACT_MASS>
694.34118563

> <PUBCHEM_MOLECULAR_FORMULA>
C32H54O16

> <PUBCHEM_MOLECULAR_WEIGHT>
694.8

> <PUBCHEM_OPENEYE_CAN_SMILES>
CCC(C)CCCC(=O)OC1C(OC(C(C1O)O)OC(C2(C(C(C(O2)CO)OC(=O)C)OC(=O)CCCC(C)CC)O)OC(=O)C)CO

> <PUBCHEM_OPENEYE_ISO_SMILES>
CCC(C)CCCC(=O)O[C@@H]1[C@H](O[C@@H]([C@@H]([C@H]1O)O)OC([C@@]2([C@H]([C@@H]([C@H](O2)CO)OC(=O)C)OC(=O)CCCC(C)CC)O)OC(=O)C)CO

> <PUBCHEM_CACTVS_TPSA>
234

> <PUBCHEM_MONOISOTOPIC_WEIGHT>
694.34118563

> <PUBCHEM_TOTAL_CHARGE>
0

> <PUBCHEM_HEAVY_ATOM_COUNT>
48

> <PUBCHEM_ATOM_DEF_STEREO_COUNT>
9

> <PUBCHEM_ATOM_UDEF_STEREO_COUNT>
3

> <PUBCHEM_BOND_DEF_STEREO_COUNT>
0

> <PUBCHEM_BOND_UDEF_STEREO_COUNT>
0

> <PUBCHEM_ISOTOPIC_ATOM_COUNT>
0

> <PUBCHEM_COMPONENT_COUNT>
1

> <PUBCHEM_CACTVS_TAUTO_COUNT>
-1

> <PUBCHEM_COORDINATE_TYPE>
1
5
255

> <PUBCHEM_BONDANNOTATIONS>
24  10  5
22  2  6
20  27  6
26  28  5
18  3  6
37  44  3
17  4  6
42  46  3
19  5  5
21  7  3
25  8  6
23  9  6

$$$$
