 
  -OEChem-10192104062D

 18 18  0     0  0  0  0  0  0999 V2000
    4.2690    1.3450    0.0000 S   0  0  0  0  0  0  0  0  0  0  0  0
    4.2690    2.3450    0.0000 O   0  0  0  0  0  0  0  0  0  0  0  0
    5.2690    1.3450    0.0000 O   0  0  0  0  0  0  0  0  0  0  0  0
    3.2690    1.3450    0.0000 O   0  0  0  0  0  0  0  0  0  0  0  0
    2.5369   -2.6550    0.0000 O   0  0  0  0  0  0  0  0  0  0  0  0
    4.2690    0.3450    0.0000 C   0  0  0  0  0  0  0  0  0  0  0  0
    3.4030   -0.1550    0.0000 C   0  0  0  0  0  0  0  0  0  0  0  0
    3.4030   -1.1550    0.0000 C   0  0  0  0  0  0  0  0  0  0  0  0
    5.1350   -0.1550    0.0000 C   0  0  0  0  0  0  0  0  0  0  0  0
    4.2690   -1.6550    0.0000 C   0  0  0  0  0  0  0  0  0  0  0  0
    5.1350   -1.1550    0.0000 C   0  0  0  0  0  0  0  0  0  0  0  0
    2.5369   -1.6550    0.0000 C   0  0  0  0  0  0  0  0  0  0  0  0
    2.8660    0.1550    0.0000 H   0  0  0  0  0  0  0  0  0  0  0  0
    5.6720    0.1550    0.0000 H   0  0  0  0  0  0  0  0  0  0  0  0
    5.6720   -1.4650    0.0000 H   0  0  0  0  0  0  0  0  0  0  0  0
    4.2690   -2.2750    0.0000 H   0  0  0  0  0  0  0  0  0  0  0  0
    2.0000   -1.3450    0.0000 H   0  0  0  0  0  0  0  0  0  0  0  0
    4.8059    2.6550    0.0000 H   0  0  0  0  0  0  0  0  0  0  0  0
  1  2  1  0  0  0  0
  1  3  2  0  0  0  0
  1  4  2  0  0  0  0
  1  6  1  0  0  0  0
  2 18  1  0  0  0  0
  5 12  2  0  0  0  0
  6  7  1  0  0  0  0
  6  9  2  0  0  0  0
  7  8  2  0  0  0  0
  7 13  1  0  0  0  0
  8 10  1  0  0  0  0
  8 12  1  0  0  0  0
  9 11  1  0  0  0  0
  9 14  1  0  0  0  0
 10 11  2  0  0  0  0
 10 16  1  0  0  0  0
 11 15  1  0  0  0  0
 12 17  1  0  0  0  0
M  END
> <PUBCHEM_COMPOUND_CID>
104693

> <PUBCHEM_COMPOUND_CANONICALIZED>
1

> <PUBCHEM_CACTVS_COMPLEXITY>
251

> <PUBCHEM_CACTVS_HBOND_ACCEPTOR>
4

> <PUBCHEM_CACTVS_HBOND_DONOR>
1

> <PUBCHEM_CACTVS_ROTATABLE_BOND>
2

> <PUBCHEM_CACTVS_SUBSKEYS>
AAADcYBgOABAAAAAAAAAAAAAAAAAAAAAAAAwAAAAAAAAAAABAAAAGgQACAAADACg2AIwAYAAAIKIAihSgHBCAEAkAAAIiBkAAMgIIDKAFRCAIQAggAAIiYcIiACOAAAAgAAAAAAAAAEAAAAAAAAAAAAAAA==

> <PUBCHEM_IUPAC_OPENEYE_NAME>
3-formylbenzenesulfonic acid

> <PUBCHEM_IUPAC_CAS_NAME>
3-formylbenzenesulfonic acid

> <PUBCHEM_IUPAC_NAME_MARKUP>
3-formylbenzenesulfonic acid

> <PUBCHEM_IUPAC_NAME>
3-formylbenzenesulfonic acid

> <PUBCHEM_IUPAC_SYSTEMATIC_NAME>
3-methanoylbenzenesulfonic acid

> <PUBCHEM_IUPAC_TRADITIONAL_NAME>
3-formylbesylic acid

> <PUBCHEM_IUPAC_INCHI>
InChI=1S/C7H6O4S/c8-5-6-2-1-3-7(4-6)12(9,10)11/h1-5H,(H,9,10,11)

> <PUBCHEM_IUPAC_INCHIKEY>
MRXZEDMLQMDMGB-UHFFFAOYSA-N

> <PUBCHEM_XLOGP3_AA>
0.1

> <PUBCHEM_EXACT_MASS>
185.99867984

> <PUBCHEM_MOLECULAR_FORMULA>
C7H6O4S

> <PUBCHEM_MOLECULAR_WEIGHT>
186.19

> <PUBCHEM_OPENEYE_CAN_SMILES>
C1=CC(=CC(=C1)S(=O)(=O)O)C=O

> <PUBCHEM_OPENEYE_ISO_SMILES>
C1=CC(=CC(=C1)S(=O)(=O)O)C=O

> <PUBCHEM_CACTVS_TPSA>
79.8

> <PUBCHEM_MONOISOTOPIC_WEIGHT>
185.99867984

> <PUBCHEM_TOTAL_CHARGE>
0

> <PUBCHEM_HEAVY_ATOM_COUNT>
12

> <PUBCHEM_ATOM_DEF_STEREO_COUNT>
0

> <PUBCHEM_ATOM_UDEF_STEREO_COUNT>
0

> <PUBCHEM_BOND_DEF_STEREO_COUNT>
0

> <PUBCHEM_BOND_UDEF_STEREO_COUNT>
0

> <PUBCHEM_ISOTOPIC_ATOM_COUNT>
0

> <PUBCHEM_COMPONENT_COUNT>
1

> <PUBCHEM_CACTVS_TAUTO_COUNT>
1

> <PUBCHEM_COORDINATE_TYPE>
1
5
255

> <PUBCHEM_BONDANNOTATIONS>
10  11  8
6  7  8
6  9  8
7  8  8
8  10  8
9  11  8

$$$$
