 
  -OEChem-10192104402D

 65 68  0     1  0  0  0  0  0999 V2000
    6.5484    2.0207    0.0000 P   0  0  3  0  0  0  0  0  0  0  0  0
    7.5517   -0.9001    0.0000 O   0  0  0  0  0  0  0  0  0  0  0  0
   10.0897   -1.4045    0.0000 O   0  0  0  0  0  0  0  0  0  0  0  0
    9.9014    0.1836    0.0000 O   0  0  0  0  0  0  0  0  0  0  0  0
    6.8557    1.0691    0.0000 O   0  0  0  0  0  0  0  0  0  0  0  0
    6.2410    2.9722    0.0000 O   0  0  0  0  0  0  0  0  0  0  0  0
    5.5968    1.7133    0.0000 O   0  0  0  0  0  0  0  0  0  0  0  0
    7.4999    2.3280    0.0000 O   0  0  0  0  0  0  0  0  0  0  0  0
    6.0152   -5.4654    0.0000 O   0  0  0  0  0  0  0  0  0  0  0  0
    5.3872    0.7355    0.0000 O   0  0  0  0  0  0  0  0  0  0  0  0
    4.5928    2.4399    0.0000 O   0  0  0  0  0  0  0  0  0  0  0  0
    7.8274   -2.6607    0.0000 N   0  0  0  0  0  0  0  0  0  0  0  0
    7.8274   -4.2701    0.0000 N   0  0  0  0  0  0  0  0  0  0  0  0
    6.0152   -2.4654    0.0000 N   0  0  0  0  0  0  0  0  0  0  0  0
    5.1491   -3.9654    0.0000 N   0  0  0  0  0  0  0  0  0  0  0  0
    4.2831   -2.4654    0.0000 N   0  0  0  0  0  0  0  0  0  0  0  0
    5.6262    4.8754    0.0000 N   0  0  0  0  0  0  0  0  0  0  0  0
    9.0897   -1.4028    0.0000 C   0  0  2  0  0  0  0  0  0  0  0  0
    9.0914   -0.4028    0.0000 C   0  0  1  0  0  0  0  0  0  0  0  0
    8.1381   -1.7102    0.0000 C   0  0  1  0  0  0  0  0  0  0  0  0
    8.1409   -0.0921    0.0000 C   0  0  1  0  0  0  0  0  0  0  0  0
    9.3970   -2.3544    0.0000 C   0  0  0  0  0  0  0  0  0  0  0  0
    7.8335    0.8595    0.0000 C   0  0  0  0  0  0  0  0  0  0  0  0
    6.8812   -2.9654    0.0000 C   0  0  0  0  0  0  0  0  0  0  0  0
    8.4110   -3.4654    0.0000 C   0  0  0  0  0  0  0  0  0  0  0  0
    6.8812   -3.9654    0.0000 C   0  0  0  0  0  0  0  0  0  0  0  0
    6.0152   -4.4654    0.0000 C   0  0  0  0  0  0  0  0  0  0  0  0
    5.1491   -2.9654    0.0000 C   0  0  0  0  0  0  0  0  0  0  0  0
    5.2632    3.1818    0.0000 C   0  0  0  0  0  0  0  0  0  0  0  0
    4.9558    4.1334    0.0000 C   0  0  2  0  0  0  0  0  0  0  0  0
    4.4356    0.4281    0.0000 C   0  0  0  0  0  0  0  0  0  0  0  0
    3.9780    4.3430    0.0000 C   0  0  0  0  0  0  0  0  0  0  0  0
    3.6936    1.0985    0.0000 C   0  0  0  0  0  0  0  0  0  0  0  0
    2.7420    0.7912    0.0000 C   0  0  0  0  0  0  0  0  0  0  0  0
    3.9032    2.0763    0.0000 C   0  0  0  0  0  0  0  0  0  0  0  0
    2.0000    1.4616    0.0000 C   0  0  0  0  0  0  0  0  0  0  0  0
    3.1612    2.7468    0.0000 C   0  0  0  0  0  0  0  0  0  0  0  0
    2.2096    2.4394    0.0000 C   0  0  0  0  0  0  0  0  0  0  0  0
    9.6433   -0.6852    0.0000 H   0  0  0  0  0  0  0  0  0  0  0  0
    7.5255   -1.8061    0.0000 H   0  0  0  0  0  0  0  0  0  0  0  0
    7.5287    0.0059    0.0000 H   0  0  0  0  0  0  0  0  0  0  0  0
    8.8070   -2.5450    0.0000 H   0  0  0  0  0  0  0  0  0  0  0  0
    9.5876   -2.9444    0.0000 H   0  0  0  0  0  0  0  0  0  0  0  0
    9.9870   -2.1638    0.0000 H   0  0  0  0  0  0  0  0  0  0  0  0
    8.4476    0.9447    0.0000 H   0  0  0  0  0  0  0  0  0  0  0  0
    7.8562    1.4790    0.0000 H   0  0  0  0  0  0  0  0  0  0  0  0
   10.3987   -1.9420    0.0000 H   0  0  0  0  0  0  0  0  0  0  0  0
    9.8377    0.8003    0.0000 H   0  0  0  0  0  0  0  0  0  0  0  0
    9.0310   -3.4654    0.0000 H   0  0  0  0  0  0  0  0  0  0  0  0
    4.6122   -4.2754    0.0000 H   0  0  0  0  0  0  0  0  0  0  0  0
    3.7462   -2.7754    0.0000 H   0  0  0  0  0  0  0  0  0  0  0  0
    4.2831   -1.8454    0.0000 H   0  0  0  0  0  0  0  0  0  0  0  0
    4.7652    4.7234    0.0000 H   0  0  0  0  0  0  0  0  0  0  0  0
    3.9463    0.0473    0.0000 H   0  0  0  0  0  0  0  0  0  0  0  0
    4.7257   -0.1198    0.0000 H   0  0  0  0  0  0  0  0  0  0  0  0
    4.1080    4.9493    0.0000 H   0  0  0  0  0  0  0  0  0  0  0  0
    3.3718    4.4730    0.0000 H   0  0  0  0  0  0  0  0  0  0  0  0
    3.8481    3.7368    0.0000 H   0  0  0  0  0  0  0  0  0  0  0  0
    5.4357    5.4654    0.0000 H   0  0  0  0  0  0  0  0  0  0  0  0
    6.2325    4.7455    0.0000 H   0  0  0  0  0  0  0  0  0  0  0  0
    2.6120    0.1849    0.0000 H   0  0  0  0  0  0  0  0  0  0  0  0
    4.4932    2.2669    0.0000 H   0  0  0  0  0  0  0  0  0  0  0  0
    1.4100    1.2710    0.0000 H   0  0  0  0  0  0  0  0  0  0  0  0
    3.2912    3.3530    0.0000 H   0  0  0  0  0  0  0  0  0  0  0  0
    1.7496    2.8550    0.0000 H   0  0  0  0  0  0  0  0  0  0  0  0
  1  5  1  0  0  0  0
  1  6  1  0  0  0  0
  1  7  1  0  0  0  0
  1  8  2  0  0  0  0
  2 20  1  0  0  0  0
  2 21  1  0  0  0  0
 18  3  1  1  0  0  0
  3 47  1  0  0  0  0
 19  4  1  1  0  0  0
  4 48  1  0  0  0  0
  5 23  1  0  0  0  0
  6 29  1  0  0  0  0
  7 10  1  0  0  0  0
  9 27  2  0  0  0  0
 10 31  1  0  0  0  0
 11 29  2  0  0  0  0
 20 12  1  6  0  0  0
 12 24  1  0  0  0  0
 12 25  1  0  0  0  0
 13 25  2  0  0  0  0
 13 26  1  0  0  0  0
 14 24  1  0  0  0  0
 14 28  2  0  0  0  0
 15 27  1  0  0  0  0
 15 28  1  0  0  0  0
 15 50  1  0  0  0  0
 16 28  1  0  0  0  0
 16 51  1  0  0  0  0
 16 52  1  0  0  0  0
 30 17  1  6  0  0  0
 17 59  1  0  0  0  0
 17 60  1  0  0  0  0
 18 19  1  0  0  0  0
 18 20  1  0  0  0  0
 18 22  1  0  0  0  0
 19 21  1  0  0  0  0
 19 39  1  0  0  0  0
 20 40  1  0  0  0  0
 21 23  1  6  0  0  0
 21 41  1  0  0  0  0
 22 42  1  0  0  0  0
 22 43  1  0  0  0  0
 22 44  1  0  0  0  0
 23 45  1  0  0  0  0
 23 46  1  0  0  0  0
 24 26  2  0  0  0  0
 25 49  1  0  0  0  0
 26 27  1  0  0  0  0
 29 30  1  0  0  0  0
 30 32  1  0  0  0  0
 30 53  1  0  0  0  0
 31 33  1  0  0  0  0
 31 54  1  0  0  0  0
 31 55  1  0  0  0  0
 32 56  1  0  0  0  0
 32 57  1  0  0  0  0
 32 58  1  0  0  0  0
 33 34  2  0  0  0  0
 33 35  1  0  0  0  0
 34 36  1  0  0  0  0
 34 61  1  0  0  0  0
 35 37  2  0  0  0  0
 35 62  1  0  0  0  0
 36 38  2  0  0  0  0
 36 63  1  0  0  0  0
 37 38  1  0  0  0  0
 37 64  1  0  0  0  0
 38 65  1  0  0  0  0
M  END
> <PUBCHEM_COMPOUND_CID>
136409241

> <PUBCHEM_COMPOUND_CANONICALIZED>
1

> <PUBCHEM_CACTVS_COMPLEXITY>
967

> <PUBCHEM_CACTVS_HBOND_ACCEPTOR>
13

> <PUBCHEM_CACTVS_HBOND_DONOR>
5

> <PUBCHEM_CACTVS_ROTATABLE_BOND>
11

> <PUBCHEM_CACTVS_SUBSKEYS>
AAADceB7vAIAAAAAAAAAAAAAAAAAAWJAAAAwQAAAAAAAAEABwAAAHgAQDCAADHzhngY3uJfMFxCoQyfzfICCgC03EKAJ2IGoXMiLfirA2TCecIgv0QPbiGfw8CIOAAAAAAAAAAAAAAAAAAAAAAAAAAAAAA==

> <PUBCHEM_IUPAC_OPENEYE_NAME>
[[(2R,3R,4R,5R)-5-(2-amino-6-oxo-1H-purin-9-yl)-3,4-dihydroxy-4-methyl-tetrahydrofuran-2-yl]methoxy-benzylperoxy-phosphoryl] (2S)-2-aminopropanoate

> <PUBCHEM_IUPAC_CAS_NAME>
(2S)-2-aminopropanoic acid [[(2R,3R,4R,5R)-5-(2-amino-6-oxo-1H-purin-9-yl)-3,4-dihydroxy-4-methyl-2-oxolanyl]methoxy-(phenylmethyl)dioxyphosphoryl] ester

> <PUBCHEM_IUPAC_NAME_MARKUP>
[[(2<I>R</I>,3<I>R</I>,4<I>R</I>,5<I>R</I>)-5-(2-amino-6-oxo-1<I>H</I>-purin-9-yl)-3,4-dihydroxy-4-methyloxolan-2-yl]methoxy-benzylperoxyphosphoryl] (2<I>S</I>)-2-aminopropanoate

> <PUBCHEM_IUPAC_NAME>
[[(2R,3R,4R,5R)-5-(2-amino-6-oxo-1H-purin-9-yl)-3,4-dihydroxy-4-methyloxolan-2-yl]methoxy-benzylperoxyphosphoryl] (2S)-2-aminopropanoate

> <PUBCHEM_IUPAC_SYSTEMATIC_NAME>
[[(2R,3R,4R,5R)-5-(2-azanyl-6-oxidanylidene-1H-purin-9-yl)-4-methyl-3,4-bis(oxidanyl)oxolan-2-yl]methoxy-(phenylmethyl)peroxy-phosphoryl] (2S)-2-azanylpropanoate

> <PUBCHEM_IUPAC_TRADITIONAL_NAME>
(2S)-2-aminopropionic acid [[(2R,3R,4R,5R)-5-(2-amino-6-keto-1H-purin-9-yl)-3,4-dihydroxy-4-methyl-tetrahydrofuran-2-yl]methoxy-benzylperoxy-phosphoryl] ester

> <PUBCHEM_IUPAC_INCHI>
InChI=1S/C21H27N6O10P/c1-11(22)18(30)36-38(32,37-33-8-12-6-4-3-5-7-12)34-9-13-15(28)21(2,31)19(35-13)27-10-24-14-16(27)25-20(23)26-17(14)29/h3-7,10-11,13,15,19,28,31H,8-9,22H2,1-2H3,(H3,23,25,26,29)/t11-,13+,15+,19+,21+,38?/m0/s1

> <PUBCHEM_IUPAC_INCHIKEY>
VKCIYCFUEMUCHH-PGAXODNWSA-N

> <PUBCHEM_XLOGP3_AA>
-2.1

> <PUBCHEM_EXACT_MASS>
554.15262808

> <PUBCHEM_MOLECULAR_FORMULA>
C21H27N6O10P

> <PUBCHEM_MOLECULAR_WEIGHT>
554.4

> <PUBCHEM_OPENEYE_CAN_SMILES>
CC(C(=O)OP(=O)(OCC1C(C(C(O1)N2C=NC3=C2N=C(NC3=O)N)(C)O)O)OOCC4=CC=CC=C4)N

> <PUBCHEM_OPENEYE_ISO_SMILES>
C[C@@H](C(=O)OP(=O)(OC[C@@H]1[C@H]([C@@]([C@@H](O1)N2C=NC3=C2N=C(NC3=O)N)(C)O)O)OOCC4=CC=CC=C4)N

> <PUBCHEM_CACTVS_TPSA>
232

> <PUBCHEM_MONOISOTOPIC_WEIGHT>
554.15262808

> <PUBCHEM_TOTAL_CHARGE>
0

> <PUBCHEM_HEAVY_ATOM_COUNT>
38

> <PUBCHEM_ATOM_DEF_STEREO_COUNT>
5

> <PUBCHEM_ATOM_UDEF_STEREO_COUNT>
1

> <PUBCHEM_BOND_DEF_STEREO_COUNT>
0

> <PUBCHEM_BOND_UDEF_STEREO_COUNT>
0

> <PUBCHEM_ISOTOPIC_ATOM_COUNT>
0

> <PUBCHEM_COMPONENT_COUNT>
1

> <PUBCHEM_CACTVS_TAUTO_COUNT>
-1

> <PUBCHEM_COORDINATE_TYPE>
1
5
255

> <PUBCHEM_BONDANNOTATIONS>
1  5  3
20  12  6
12  24  8
12  25  8
13  25  8
13  26  8
14  24  8
14  28  8
15  27  8
15  28  8
30  17  6
21  23  6
24  26  8
26  27  8
18  3  5
33  34  8
33  35  8
34  36  8
35  37  8
36  38  8
37  38  8
19  4  5

$$$$
