 
  -OEChem-10192104292D

 64 66  0     1  0  0  0  0  0999 V2000
    6.8671   -1.3450    0.0000 O   0  0  0  0  0  0  0  0  0  0  0  0
    6.8671    1.6550    0.0000 O   0  0  0  0  0  0  0  0  0  0  0  0
    5.1350   -1.3450    0.0000 O   0  0  0  0  0  0  0  0  0  0  0  0
    5.1350   -0.3450    0.0000 O   0  0  0  0  0  0  0  0  0  0  0  0
    8.5991    1.6550    0.0000 O   0  0  0  0  0  0  0  0  0  0  0  0
    6.8671   -3.3450    0.0000 O   0  0  0  0  0  0  0  0  0  0  0  0
    5.1350   -4.3450    0.0000 O   0  0  0  0  0  0  0  0  0  0  0  0
    3.4030   -3.3450    0.0000 O   0  0  0  0  0  0  0  0  0  0  0  0
    5.1350    2.6550    0.0000 O   0  0  0  0  0  0  0  0  0  0  0  0
    2.5369   -1.8450    0.0000 O   0  0  0  0  0  0  0  0  0  0  0  0
    9.4651    1.1550    0.0000 O   0  0  0  0  0  0  0  0  0  0  0  0
    8.5991   -0.3450    0.0000 N   0  0  0  0  0  0  0  0  0  0  0  0
    6.8671   -0.3450    0.0000 C   0  0  3  0  0  0  0  0  0  0  0  0
    7.7331    0.1550    0.0000 C   0  0  3  0  0  0  0  0  0  0  0  0
    6.0010    0.1550    0.0000 C   0  0  3  0  0  0  0  0  0  0  0  0
    6.0010    1.1550    0.0000 C   0  0  3  0  0  0  0  0  0  0  0  0
    6.0010   -1.8450    0.0000 C   0  0  3  0  0  0  0  0  0  0  0  0
    7.7331    1.1550    0.0000 C   0  0  3  0  0  0  0  0  0  0  0  0
    6.0010   -2.8450    0.0000 C   0  0  3  0  0  0  0  0  0  0  0  0
    5.1350   -3.3450    0.0000 C   0  0  3  0  0  0  0  0  0  0  0  0
    4.2690   -2.8450    0.0000 C   0  0  3  0  0  0  0  0  0  0  0  0
    4.2690   -1.8450    0.0000 C   0  0  3  0  0  0  0  0  0  0  0  0
    5.1350    1.6550    0.0000 C   0  0  0  0  0  0  0  0  0  0  0  0
    3.4030   -1.3450    0.0000 C   0  0  0  0  0  0  0  0  0  0  0  0
    9.4651    0.1550    0.0000 C   0  0  0  0  0  0  0  0  0  0  0  0
    8.5991    2.6550    0.0000 C   0  0  0  0  0  0  0  0  0  0  0  0
   10.3312   -0.3450    0.0000 C   0  0  0  0  0  0  0  0  0  0  0  0
    9.4651    3.1550    0.0000 C   0  0  0  0  0  0  0  0  0  0  0  0
    9.4651    4.1550    0.0000 C   0  0  0  0  0  0  0  0  0  0  0  0
   10.3312    2.6550    0.0000 C   0  0  0  0  0  0  0  0  0  0  0  0
   10.3312    4.6550    0.0000 C   0  0  0  0  0  0  0  0  0  0  0  0
   11.1972    3.1550    0.0000 C   0  0  0  0  0  0  0  0  0  0  0  0
   11.1972    4.1550    0.0000 C   0  0  0  0  0  0  0  0  0  0  0  0
    7.4040   -0.6550    0.0000 H   0  0  0  0  0  0  0  0  0  0  0  0
    7.7331   -0.4650    0.0000 H   0  0  0  0  0  0  0  0  0  0  0  0
    6.0010   -0.4650    0.0000 H   0  0  0  0  0  0  0  0  0  0  0  0
    6.0010    1.7750    0.0000 H   0  0  0  0  0  0  0  0  0  0  0  0
    6.0010   -1.2250    0.0000 H   0  0  0  0  0  0  0  0  0  0  0  0
    8.2700    0.8450    0.0000 H   0  0  0  0  0  0  0  0  0  0  0  0
    6.0010   -3.4650    0.0000 H   0  0  0  0  0  0  0  0  0  0  0  0
    4.5981   -3.6550    0.0000 H   0  0  0  0  0  0  0  0  0  0  0  0
    4.2690   -3.4650    0.0000 H   0  0  0  0  0  0  0  0  0  0  0  0
    4.2690   -1.2250    0.0000 H   0  0  0  0  0  0  0  0  0  0  0  0
    8.5991   -0.9650    0.0000 H   0  0  0  0  0  0  0  0  0  0  0  0
    4.5244    1.7627    0.0000 H   0  0  0  0  0  0  0  0  0  0  0  0
    4.9230    1.0724    0.0000 H   0  0  0  0  0  0  0  0  0  0  0  0
    3.8015   -0.8701    0.0000 H   0  0  0  0  0  0  0  0  0  0  0  0
    3.0044   -0.8701    0.0000 H   0  0  0  0  0  0  0  0  0  0  0  0
    4.5981   -0.0350    0.0000 H   0  0  0  0  0  0  0  0  0  0  0  0
    6.8671   -3.9650    0.0000 H   0  0  0  0  0  0  0  0  0  0  0  0
    4.5981   -4.6550    0.0000 H   0  0  0  0  0  0  0  0  0  0  0  0
    3.4030   -3.9650    0.0000 H   0  0  0  0  0  0  0  0  0  0  0  0
    8.3871    3.2376    0.0000 H   0  0  0  0  0  0  0  0  0  0  0  0
    7.9885    2.5473    0.0000 H   0  0  0  0  0  0  0  0  0  0  0  0
    4.5981    2.9650    0.0000 H   0  0  0  0  0  0  0  0  0  0  0  0
    2.0000   -1.5350    0.0000 H   0  0  0  0  0  0  0  0  0  0  0  0
   10.0212   -0.8819    0.0000 H   0  0  0  0  0  0  0  0  0  0  0  0
   10.8681   -0.6550    0.0000 H   0  0  0  0  0  0  0  0  0  0  0  0
   10.6412    0.1919    0.0000 H   0  0  0  0  0  0  0  0  0  0  0  0
    8.9282    4.4650    0.0000 H   0  0  0  0  0  0  0  0  0  0  0  0
   10.3312    2.0350    0.0000 H   0  0  0  0  0  0  0  0  0  0  0  0
   10.3312    5.2750    0.0000 H   0  0  0  0  0  0  0  0  0  0  0  0
   11.7341    2.8450    0.0000 H   0  0  0  0  0  0  0  0  0  0  0  0
   11.7341    4.4650    0.0000 H   0  0  0  0  0  0  0  0  0  0  0  0
  1 13  1  0  0  0  0
  1 17  1  0  0  0  0
  2 16  1  0  0  0  0
  2 18  1  0  0  0  0
  3 17  1  0  0  0  0
  3 22  1  0  0  0  0
  4 15  1  0  0  0  0
  4 49  1  0  0  0  0
  5 18  1  0  0  0  0
  5 26  1  0  0  0  0
  6 19  1  0  0  0  0
  6 50  1  0  0  0  0
  7 20  1  0  0  0  0
  7 51  1  0  0  0  0
  8 21  1  0  0  0  0
  8 52  1  0  0  0  0
  9 23  1  0  0  0  0
  9 55  1  0  0  0  0
 10 24  1  0  0  0  0
 10 56  1  0  0  0  0
 11 25  2  0  0  0  0
 12 14  1  0  0  0  0
 12 25  1  0  0  0  0
 12 44  1  0  0  0  0
 13 14  1  0  0  0  0
 13 15  1  0  0  0  0
 13 34  1  0  0  0  0
 14 18  1  0  0  0  0
 14 35  1  0  0  0  0
 15 16  1  0  0  0  0
 15 36  1  0  0  0  0
 16 23  1  0  0  0  0
 16 37  1  0  0  0  0
 17 19  1  0  0  0  0
 17 38  1  0  0  0  0
 18 39  1  0  0  0  0
 19 20  1  0  0  0  0
 19 40  1  0  0  0  0
 20 21  1  0  0  0  0
 20 41  1  0  0  0  0
 21 22  1  0  0  0  0
 21 42  1  0  0  0  0
 22 24  1  0  0  0  0
 22 43  1  0  0  0  0
 23 45  1  0  0  0  0
 23 46  1  0  0  0  0
 24 47  1  0  0  0  0
 24 48  1  0  0  0  0
 25 27  1  0  0  0  0
 26 28  1  0  0  0  0
 26 53  1  0  0  0  0
 26 54  1  0  0  0  0
 27 57  1  0  0  0  0
 27 58  1  0  0  0  0
 27 59  1  0  0  0  0
 28 29  2  0  0  0  0
 28 30  1  0  0  0  0
 29 31  1  0  0  0  0
 29 60  1  0  0  0  0
 30 32  2  0  0  0  0
 30 61  1  0  0  0  0
 31 33  2  0  0  0  0
 31 62  1  0  0  0  0
 32 33  1  0  0  0  0
 32 63  1  0  0  0  0
 33 64  1  0  0  0  0
M  END
> <PUBCHEM_COMPOUND_CID>
5127523

> <PUBCHEM_COMPOUND_CANONICALIZED>
1

> <PUBCHEM_CACTVS_COMPLEXITY>
619

> <PUBCHEM_CACTVS_HBOND_ACCEPTOR>
11

> <PUBCHEM_CACTVS_HBOND_DONOR>
7

> <PUBCHEM_CACTVS_ROTATABLE_BOND>
8

> <PUBCHEM_CACTVS_SUBSKEYS>
AAADceB6PAAAAAAAAAAAAAAAAAAAAAAAAAA0SIAAAAAAAAABAAAAHgAQCAAADDzxmAcyCILABgCIAiFSEAACAAAgAAAIiIAICIgbNiKAsRincAAn1gGfqAfw8C8OAAAAAAAAAAAAAAAAAAAAAAAAAAAAAA==

> <PUBCHEM_IUPAC_OPENEYE_NAME>
N-[2-benzyloxy-5-hydroxy-6-(hydroxymethyl)-4-[3,4,5-trihydroxy-6-(hydroxymethyl)tetrahydropyran-2-yl]oxy-tetrahydropyran-3-yl]acetamide

> <PUBCHEM_IUPAC_CAS_NAME>
N-[5-hydroxy-6-(hydroxymethyl)-2-phenylmethoxy-4-[[3,4,5-trihydroxy-6-(hydroxymethyl)-2-oxanyl]oxy]-3-oxanyl]acetamide

> <PUBCHEM_IUPAC_NAME_MARKUP>
<I>N</I>-[5-hydroxy-6-(hydroxymethyl)-2-phenylmethoxy-4-[3,4,5-trihydroxy-6-(hydroxymethyl)oxan-2-yl]oxyoxan-3-yl]acetamide

> <PUBCHEM_IUPAC_NAME>
N-[5-hydroxy-6-(hydroxymethyl)-2-phenylmethoxy-4-[3,4,5-trihydroxy-6-(hydroxymethyl)oxan-2-yl]oxyoxan-3-yl]acetamide

> <PUBCHEM_IUPAC_SYSTEMATIC_NAME>
N-[6-(hydroxymethyl)-4-[6-(hydroxymethyl)-3,4,5-tris(oxidanyl)oxan-2-yl]oxy-5-oxidanyl-2-phenylmethoxy-oxan-3-yl]ethanamide

> <PUBCHEM_IUPAC_TRADITIONAL_NAME>
N-[2-benzoxy-5-hydroxy-6-methylol-4-(3,4,5-trihydroxy-6-methylol-tetrahydropyran-2-yl)oxy-tetrahydropyran-3-yl]acetamide

> <PUBCHEM_IUPAC_INCHI>
InChI=1S/C21H31NO11/c1-10(25)22-14-19(33-21-18(29)17(28)15(26)12(7-23)32-21)16(27)13(8-24)31-20(14)30-9-11-5-3-2-4-6-11/h2-6,12-21,23-24,26-29H,7-9H2,1H3,(H,22,25)

> <PUBCHEM_IUPAC_INCHIKEY>
MYDRTQFLXCNCAG-UHFFFAOYSA-N

> <PUBCHEM_XLOGP3>
-2.3

> <PUBCHEM_EXACT_MASS>
473.18971080

> <PUBCHEM_MOLECULAR_FORMULA>
C21H31NO11

> <PUBCHEM_MOLECULAR_WEIGHT>
473.5

> <PUBCHEM_OPENEYE_CAN_SMILES>
CC(=O)NC1C(C(C(OC1OCC2=CC=CC=C2)CO)O)OC3C(C(C(C(O3)CO)O)O)O

> <PUBCHEM_OPENEYE_ISO_SMILES>
CC(=O)NC1C(C(C(OC1OCC2=CC=CC=C2)CO)O)OC3C(C(C(C(O3)CO)O)O)O

> <PUBCHEM_CACTVS_TPSA>
187

> <PUBCHEM_MONOISOTOPIC_WEIGHT>
473.18971080

> <PUBCHEM_TOTAL_CHARGE>
0

> <PUBCHEM_HEAVY_ATOM_COUNT>
33

> <PUBCHEM_ATOM_DEF_STEREO_COUNT>
0

> <PUBCHEM_ATOM_UDEF_STEREO_COUNT>
10

> <PUBCHEM_BOND_DEF_STEREO_COUNT>
0

> <PUBCHEM_BOND_UDEF_STEREO_COUNT>
0

> <PUBCHEM_ISOTOPIC_ATOM_COUNT>
0

> <PUBCHEM_COMPONENT_COUNT>
1

> <PUBCHEM_CACTVS_TAUTO_COUNT>
-1

> <PUBCHEM_COORDINATE_TYPE>
1
5
255

> <PUBCHEM_BONDANNOTATIONS>
13  1  3
17  1  3
14  12  3
16  23  3
22  24  3
28  29  8
28  30  8
29  31  8
30  32  8
31  33  8
32  33  8
15  4  3
18  5  3
19  6  3
20  7  3
21  8  3

$$$$
