 
  -OEChem-10192104012D

 17 17  0     0  0  0  0  0  0999 V2000
    2.5369    0.5600    0.0000 O   0  0  0  0  0  0  0  0  0  0  0  0
    6.0010    0.5600    0.0000 O   0  0  0  0  0  0  0  0  0  0  0  0
    2.5369   -1.4400    0.0000 O   0  0  0  0  0  0  0  0  0  0  0  0
    5.1350    2.0600    0.0000 O   0  0  0  0  0  0  0  0  0  0  0  0
    4.2690    0.5600    0.0000 C   0  0  0  0  0  0  0  0  0  0  0  0
    3.4030    0.0600    0.0000 C   0  0  0  0  0  0  0  0  0  0  0  0
    5.1350    0.0600    0.0000 C   0  0  0  0  0  0  0  0  0  0  0  0
    3.4030   -0.9400    0.0000 C   0  0  0  0  0  0  0  0  0  0  0  0
    5.1350   -0.9400    0.0000 C   0  0  0  0  0  0  0  0  0  0  0  0
    4.2690   -1.4400    0.0000 C   0  0  0  0  0  0  0  0  0  0  0  0
    4.2690    1.5600    0.0000 C   0  0  0  0  0  0  0  0  0  0  0  0
    5.6720   -1.2500    0.0000 H   0  0  0  0  0  0  0  0  0  0  0  0
    4.2690   -2.0600    0.0000 H   0  0  0  0  0  0  0  0  0  0  0  0
    3.7320    1.8700    0.0000 H   0  0  0  0  0  0  0  0  0  0  0  0
    2.0000    0.2500    0.0000 H   0  0  0  0  0  0  0  0  0  0  0  0
    6.5380    0.2500    0.0000 H   0  0  0  0  0  0  0  0  0  0  0  0
    2.5369   -2.0600    0.0000 H   0  0  0  0  0  0  0  0  0  0  0  0
  1  6  1  0  0  0  0
  1 15  1  0  0  0  0
  2  7  1  0  0  0  0
  2 16  1  0  0  0  0
  3  8  1  0  0  0  0
  3 17  1  0  0  0  0
  4 11  2  0  0  0  0
  5  6  1  0  0  0  0
  5  7  2  0  0  0  0
  5 11  1  0  0  0  0
  6  8  2  0  0  0  0
  7  9  1  0  0  0  0
  8 10  1  0  0  0  0
  9 10  2  0  0  0  0
  9 12  1  0  0  0  0
 10 13  1  0  0  0  0
 11 14  1  0  0  0  0
M  END
> <PUBCHEM_COMPOUND_CID>
12358156

> <PUBCHEM_COMPOUND_CANONICALIZED>
1

> <PUBCHEM_CACTVS_COMPLEXITY>
147

> <PUBCHEM_CACTVS_HBOND_ACCEPTOR>
4

> <PUBCHEM_CACTVS_HBOND_DONOR>
3

> <PUBCHEM_CACTVS_ROTATABLE_BOND>
1

> <PUBCHEM_CACTVS_SUBSKEYS>
AAADcYBgOAAAAAAAAAAAAAAAAAAAAAAAAAAwAAAAAAAAAAABAAAAGgAACAAADASgmAIwBoAAAgCIAihSgAACAAAkIAAIiAEGiMgJJzaCFBKAcUEl4BUJmQfK6DSOAQABCAAIQAACAAIQABCAAAAAAAAAAA==

> <PUBCHEM_IUPAC_OPENEYE_NAME>
2,3,6-trihydroxybenzaldehyde

> <PUBCHEM_IUPAC_CAS_NAME>
2,3,6-trihydroxybenzaldehyde

> <PUBCHEM_IUPAC_NAME_MARKUP>
2,3,6-trihydroxybenzaldehyde

> <PUBCHEM_IUPAC_NAME>
2,3,6-trihydroxybenzaldehyde

> <PUBCHEM_IUPAC_SYSTEMATIC_NAME>
2,3,6-tris(oxidanyl)benzaldehyde

> <PUBCHEM_IUPAC_TRADITIONAL_NAME>
2,3,6-trihydroxybenzaldehyde

> <PUBCHEM_IUPAC_INCHI>
InChI=1S/C7H6O4/c8-3-4-5(9)1-2-6(10)7(4)11/h1-3,9-11H

> <PUBCHEM_IUPAC_INCHIKEY>
PYVBGEUEQLAGGN-UHFFFAOYSA-N

> <PUBCHEM_XLOGP3_AA>
0.9

> <PUBCHEM_EXACT_MASS>
154.02660867

> <PUBCHEM_MOLECULAR_FORMULA>
C7H6O4

> <PUBCHEM_MOLECULAR_WEIGHT>
154.12

> <PUBCHEM_OPENEYE_CAN_SMILES>
C1=CC(=C(C(=C1O)C=O)O)O

> <PUBCHEM_OPENEYE_ISO_SMILES>
C1=CC(=C(C(=C1O)C=O)O)O

> <PUBCHEM_CACTVS_TPSA>
77.8

> <PUBCHEM_MONOISOTOPIC_WEIGHT>
154.02660867

> <PUBCHEM_TOTAL_CHARGE>
0

> <PUBCHEM_HEAVY_ATOM_COUNT>
11

> <PUBCHEM_ATOM_DEF_STEREO_COUNT>
0

> <PUBCHEM_ATOM_UDEF_STEREO_COUNT>
0

> <PUBCHEM_BOND_DEF_STEREO_COUNT>
0

> <PUBCHEM_BOND_UDEF_STEREO_COUNT>
0

> <PUBCHEM_ISOTOPIC_ATOM_COUNT>
0

> <PUBCHEM_COMPONENT_COUNT>
1

> <PUBCHEM_CACTVS_TAUTO_COUNT>
-1

> <PUBCHEM_COORDINATE_TYPE>
1
5
255

> <PUBCHEM_BONDANNOTATIONS>
5  6  8
5  7  8
6  8  8
7  9  8
8  10  8
9  10  8

$$$$
