 
  -OEChem-10192104112D

 66 68  0     1  0  0  0  0  0999 V2000
    6.8671   -0.5950    0.0000 O   0  0  0  0  0  0  0  0  0  0  0  0
    6.0010    1.9050    0.0000 O   0  0  0  0  0  0  0  0  0  0  0  0
    8.5991    0.4050    0.0000 O   0  0  0  0  0  0  0  0  0  0  0  0
    5.1350   -0.5950    0.0000 O   0  0  0  0  0  0  0  0  0  0  0  0
    6.8671    3.4050    0.0000 O   0  0  0  0  0  0  0  0  0  0  0  0
    6.8671   -2.5950    0.0000 O   0  0  0  0  0  0  0  0  0  0  0  0
    5.1350   -3.5950    0.0000 O   0  0  0  0  0  0  0  0  0  0  0  0
    3.4030   -2.5950    0.0000 O   0  0  0  0  0  0  0  0  0  0  0  0
    4.2690    0.9050    0.0000 O   0  0  0  0  0  0  0  0  0  0  0  0
    2.5369   -1.0950    0.0000 O   0  0  0  0  0  0  0  0  0  0  0  0
    7.7331    3.9050    0.0000 O   0  0  0  0  0  0  0  0  0  0  0  0
    3.4030    0.4050    0.0000 O   0  0  0  0  0  0  0  0  0  0  0  0
    8.5991    2.4050    0.0000 N   0  0  0  0  0  0  0  0  0  0  0  0
    6.8671    0.4050    0.0000 C   0  0  1  0  0  0  0  0  0  0  0  0
    7.7331    0.9050    0.0000 C   0  0  1  0  0  0  0  0  0  0  0  0
    7.7331    1.9050    0.0000 C   0  0  2  0  0  0  0  0  0  0  0  0
    6.0010    0.9050    0.0000 C   0  0  1  0  0  0  0  0  0  0  0  0
    6.8671    2.4050    0.0000 C   0  0  2  0  0  0  0  0  0  0  0  0
    6.0010   -1.0950    0.0000 C   0  0  2  0  0  0  0  0  0  0  0  0
    6.0010   -2.0950    0.0000 C   0  0  1  0  0  0  0  0  0  0  0  0
    5.1350   -2.5950    0.0000 C   0  0  2  0  0  0  0  0  0  0  0  0
    4.2690   -2.0950    0.0000 C   0  0  1  0  0  0  0  0  0  0  0  0
    5.1350    0.4050    0.0000 C   0  0  0  0  0  0  0  0  0  0  0  0
    4.2690   -1.0950    0.0000 C   0  0  1  0  0  0  0  0  0  0  0  0
    8.5991   -0.5950    0.0000 C   0  0  0  0  0  0  0  0  0  0  0  0
    8.5991    3.4050    0.0000 C   0  0  0  0  0  0  0  0  0  0  0  0
    3.4030   -0.5950    0.0000 C   0  0  0  0  0  0  0  0  0  0  0  0
    6.0010    3.9050    0.0000 C   0  0  0  0  0  0  0  0  0  0  0  0
    9.4651   -1.0950    0.0000 C   0  0  0  0  0  0  0  0  0  0  0  0
    9.4651    3.9050    0.0000 C   0  0  0  0  0  0  0  0  0  0  0  0
    9.4651   -2.0950    0.0000 C   0  0  0  0  0  0  0  0  0  0  0  0
   10.3312   -0.5950    0.0000 C   0  0  0  0  0  0  0  0  0  0  0  0
   10.3312   -2.5950    0.0000 C   0  0  0  0  0  0  0  0  0  0  0  0
   11.1972   -1.0950    0.0000 C   0  0  0  0  0  0  0  0  0  0  0  0
   11.1972   -2.0950    0.0000 C   0  0  0  0  0  0  0  0  0  0  0  0
    7.4040    0.0950    0.0000 H   0  0  0  0  0  0  0  0  0  0  0  0
    8.2700    1.2150    0.0000 H   0  0  0  0  0  0  0  0  0  0  0  0
    7.7331    2.5250    0.0000 H   0  0  0  0  0  0  0  0  0  0  0  0
    5.4641    1.2150    0.0000 H   0  0  0  0  0  0  0  0  0  0  0  0
    7.4040    2.7150    0.0000 H   0  0  0  0  0  0  0  0  0  0  0  0
    6.0010   -0.4750    0.0000 H   0  0  0  0  0  0  0  0  0  0  0  0
    6.0010   -2.7150    0.0000 H   0  0  0  0  0  0  0  0  0  0  0  0
    4.5981   -2.9050    0.0000 H   0  0  0  0  0  0  0  0  0  0  0  0
    3.7320   -1.7850    0.0000 H   0  0  0  0  0  0  0  0  0  0  0  0
    4.7365   -0.0699    0.0000 H   0  0  0  0  0  0  0  0  0  0  0  0
    5.5335   -0.0699    0.0000 H   0  0  0  0  0  0  0  0  0  0  0  0
    4.2690   -0.4750    0.0000 H   0  0  0  0  0  0  0  0  0  0  0  0
    9.1360    2.0950    0.0000 H   0  0  0  0  0  0  0  0  0  0  0  0
    7.9885   -0.4873    0.0000 H   0  0  0  0  0  0  0  0  0  0  0  0
    8.3871   -1.1776    0.0000 H   0  0  0  0  0  0  0  0  0  0  0  0
    7.4040   -2.2850    0.0000 H   0  0  0  0  0  0  0  0  0  0  0  0
    5.6720   -3.9050    0.0000 H   0  0  0  0  0  0  0  0  0  0  0  0
    3.4030   -3.2150    0.0000 H   0  0  0  0  0  0  0  0  0  0  0  0
    4.2690    1.5250    0.0000 H   0  0  0  0  0  0  0  0  0  0  0  0
    6.3110    4.4419    0.0000 H   0  0  0  0  0  0  0  0  0  0  0  0
    5.4641    4.2150    0.0000 H   0  0  0  0  0  0  0  0  0  0  0  0
    5.6910    3.3681    0.0000 H   0  0  0  0  0  0  0  0  0  0  0  0
    9.7751    3.3681    0.0000 H   0  0  0  0  0  0  0  0  0  0  0  0
   10.0021    4.2150    0.0000 H   0  0  0  0  0  0  0  0  0  0  0  0
    9.1551    4.4419    0.0000 H   0  0  0  0  0  0  0  0  0  0  0  0
    2.0000   -0.7850    0.0000 H   0  0  0  0  0  0  0  0  0  0  0  0
    8.9282   -2.4050    0.0000 H   0  0  0  0  0  0  0  0  0  0  0  0
   10.3312    0.0250    0.0000 H   0  0  0  0  0  0  0  0  0  0  0  0
   10.3312   -3.2150    0.0000 H   0  0  0  0  0  0  0  0  0  0  0  0
   11.7341   -0.7850    0.0000 H   0  0  0  0  0  0  0  0  0  0  0  0
   11.7341   -2.4050    0.0000 H   0  0  0  0  0  0  0  0  0  0  0  0
 14  1  1  6  0  0  0
 19  1  1  1  0  0  0
  2 17  1  0  0  0  0
  2 18  1  0  0  0  0
 15  3  1  1  0  0  0
  3 25  1  0  0  0  0
  4 19  1  0  0  0  0
  4 24  1  0  0  0  0
 18  5  1  6  0  0  0
  5 28  1  0  0  0  0
 20  6  1  6  0  0  0
  6 51  1  0  0  0  0
 21  7  1  1  0  0  0
  7 52  1  0  0  0  0
 22  8  1  6  0  0  0
  8 53  1  0  0  0  0
  9 23  1  0  0  0  0
  9 54  1  0  0  0  0
 10 27  1  0  0  0  0
 10 61  1  0  0  0  0
 11 26  2  0  0  0  0
 12 27  2  0  0  0  0
 16 13  1  6  0  0  0
 13 26  1  0  0  0  0
 13 48  1  0  0  0  0
 14 15  1  0  0  0  0
 14 17  1  0  0  0  0
 14 36  1  0  0  0  0
 15 16  1  0  0  0  0
 15 37  1  0  0  0  0
 16 18  1  0  0  0  0
 16 38  1  0  0  0  0
 17 23  1  1  0  0  0
 17 39  1  0  0  0  0
 18 40  1  0  0  0  0
 19 20  1  0  0  0  0
 19 41  1  0  0  0  0
 20 21  1  0  0  0  0
 20 42  1  0  0  0  0
 21 22  1  0  0  0  0
 21 43  1  0  0  0  0
 22 24  1  0  0  0  0
 22 44  1  0  0  0  0
 23 45  1  0  0  0  0
 23 46  1  0  0  0  0
 24 27  1  1  0  0  0
 24 47  1  0  0  0  0
 25 29  1  0  0  0  0
 25 49  1  0  0  0  0
 25 50  1  0  0  0  0
 26 30  1  0  0  0  0
 28 55  1  0  0  0  0
 28 56  1  0  0  0  0
 28 57  1  0  0  0  0
 29 31  2  0  0  0  0
 29 32  1  0  0  0  0
 30 58  1  0  0  0  0
 30 59  1  0  0  0  0
 30 60  1  0  0  0  0
 31 33  1  0  0  0  0
 31 62  1  0  0  0  0
 32 34  2  0  0  0  0
 32 63  1  0  0  0  0
 33 35  2  0  0  0  0
 33 64  1  0  0  0  0
 34 35  1  0  0  0  0
 34 65  1  0  0  0  0
 35 66  1  0  0  0  0
M  END
> <PUBCHEM_COMPOUND_CID>
11249081

> <PUBCHEM_COMPOUND_CANONICALIZED>
1

> <PUBCHEM_CACTVS_COMPLEXITY>
704

> <PUBCHEM_CACTVS_HBOND_ACCEPTOR>
12

> <PUBCHEM_CACTVS_HBOND_DONOR>
6

> <PUBCHEM_CACTVS_ROTATABLE_BOND>
9

> <PUBCHEM_CACTVS_SUBSKEYS>
AAADceB6PAAAAAAAAAAAAAAAAAAAAAAAAAA0SIAAAAAAAAABAAAAHgAQCAAADDzxmAcyCILABgCIAiHSGAICAAAgAAAIiIFICIgbNjaAsRyncAAn9gGfqAf6/C9OAAAAAAAAAAAAAAAAAAAAAAAAAAAAAA==

> <PUBCHEM_IUPAC_OPENEYE_NAME>
(2S,3S,4S,5R,6R)-6-[(2R,3S,4R,5R,6S)-5-acetamido-4-benzyloxy-2-(hydroxymethyl)-6-methoxy-tetrahydropyran-3-yl]oxy-3,4,5-trihydroxy-tetrahydropyran-2-carboxylic acid

> <PUBCHEM_IUPAC_CAS_NAME>
(2S,3S,4S,5R,6R)-6-[[(2R,3S,4R,5R,6S)-5-acetamido-2-(hydroxymethyl)-6-methoxy-4-phenylmethoxy-3-oxanyl]oxy]-3,4,5-trihydroxy-2-oxanecarboxylic acid

> <PUBCHEM_IUPAC_NAME_MARKUP>
(2<I>S</I>,3<I>S</I>,4<I>S</I>,5<I>R</I>,6<I>R</I>)-6-[(2<I>R</I>,3<I>S</I>,4<I>R</I>,5<I>R</I>,6<I>S</I>)-5-acetamido-2-(hydroxymethyl)-6-methoxy-4-phenylmethoxyoxan-3-yl]oxy-3,4,5-trihydroxyoxane-2-carboxylic acid

> <PUBCHEM_IUPAC_NAME>
(2S,3S,4S,5R,6R)-6-[(2R,3S,4R,5R,6S)-5-acetamido-2-(hydroxymethyl)-6-methoxy-4-phenylmethoxyoxan-3-yl]oxy-3,4,5-trihydroxyoxane-2-carboxylic acid

> <PUBCHEM_IUPAC_SYSTEMATIC_NAME>
(2S,3S,4S,5R,6R)-6-[(2R,3S,4R,5R,6S)-5-acetamido-2-(hydroxymethyl)-6-methoxy-4-phenylmethoxy-oxan-3-yl]oxy-3,4,5-tris(oxidanyl)oxane-2-carboxylic acid

> <PUBCHEM_IUPAC_TRADITIONAL_NAME>
(2S,3S,4S,5R,6R)-6-[(2R,3S,4R,5R,6S)-5-acetamido-4-benzoxy-6-methoxy-2-methylol-tetrahydropyran-3-yl]oxy-3,4,5-trihydroxy-tetrahydropyran-2-carboxylic acid

> <PUBCHEM_IUPAC_INCHI>
InChI=1S/C22H31NO12/c1-10(25)23-13-18(32-9-11-6-4-3-5-7-11)17(12(8-24)33-21(13)31-2)34-22-16(28)14(26)15(27)19(35-22)20(29)30/h3-7,12-19,21-22,24,26-28H,8-9H2,1-2H3,(H,23,25)(H,29,30)/t12-,13-,14+,15+,16-,17-,18-,19+,21+,22-/m1/s1

> <PUBCHEM_IUPAC_INCHIKEY>
ZOVAMQLRSHMUJZ-FHRSTPRBSA-N

> <PUBCHEM_XLOGP3_AA>
-1.9

> <PUBCHEM_EXACT_MASS>
501.18462542

> <PUBCHEM_MOLECULAR_FORMULA>
C22H31NO12

> <PUBCHEM_MOLECULAR_WEIGHT>
501.5

> <PUBCHEM_OPENEYE_CAN_SMILES>
CC(=O)NC1C(C(C(OC1OC)CO)OC2C(C(C(C(O2)C(=O)O)O)O)O)OCC3=CC=CC=C3

> <PUBCHEM_OPENEYE_ISO_SMILES>
CC(=O)N[C@@H]1[C@H]([C@@H]([C@H](O[C@@H]1OC)CO)O[C@H]2[C@@H]([C@H]([C@@H]([C@H](O2)C(=O)O)O)O)O)OCC3=CC=CC=C3

> <PUBCHEM_CACTVS_TPSA>
194

> <PUBCHEM_MONOISOTOPIC_WEIGHT>
501.18462542

> <PUBCHEM_TOTAL_CHARGE>
0

> <PUBCHEM_HEAVY_ATOM_COUNT>
35

> <PUBCHEM_ATOM_DEF_STEREO_COUNT>
10

> <PUBCHEM_ATOM_UDEF_STEREO_COUNT>
0

> <PUBCHEM_BOND_DEF_STEREO_COUNT>
0

> <PUBCHEM_BOND_UDEF_STEREO_COUNT>
0

> <PUBCHEM_ISOTOPIC_ATOM_COUNT>
0

> <PUBCHEM_COMPONENT_COUNT>
1

> <PUBCHEM_CACTVS_TAUTO_COUNT>
-1

> <PUBCHEM_COORDINATE_TYPE>
1
5
255

> <PUBCHEM_BONDANNOTATIONS>
14  1  6
19  1  5
16  13  6
17  23  5
24  27  5
29  31  8
29  32  8
15  3  5
31  33  8
32  34  8
33  35  8
34  35  8
18  5  6
20  6  6
21  7  5
22  8  6

$$$$
