 
  -OEChem-10192104152D

 54 55  0     1  0  0  0  0  0999 V2000
    7.9497   -0.3927    0.0000 O   0  0  0  0  0  0  0  0  0  0  0  0
    6.2177    0.6073    0.0000 O   0  0  0  0  0  0  0  0  0  0  0  0
    4.4381    0.7005    0.0000 O   0  0  0  0  0  0  0  0  0  0  0  0
    9.6818   -0.3927    0.0000 O   0  0  0  0  0  0  0  0  0  0  0  0
    6.2177   -2.3927    0.0000 O   0  0  0  0  0  0  0  0  0  0  0  0
    4.4769    3.2879    0.0000 O   0  0  0  0  0  0  0  0  0  0  0  0
    7.9497   -3.3927    0.0000 O   0  0  0  0  0  0  0  0  0  0  0  0
    5.9903    2.7709    0.0000 O   0  0  0  0  0  0  0  0  0  0  0  0
    9.6818   -2.3927    0.0000 O   0  0  0  0  0  0  0  0  0  0  0  0
    2.5369    2.3097    0.0000 O   0  0  0  0  0  0  0  0  0  0  0  0
    7.0837   -0.8927    0.0000 C   0  0  1  0  0  0  0  0  0  0  0  0
    7.0837   -1.8927    0.0000 C   0  0  2  0  0  0  0  0  0  0  0  0
    4.2690    2.3097    0.0000 C   0  0  1  0  0  0  0  0  0  0  0  0
    7.9497   -2.3927    0.0000 C   0  0  1  0  0  0  0  0  0  0  0  0
    5.2471    2.1018    0.0000 C   0  0  2  0  0  0  0  0  0  0  0  0
    8.8158   -1.8927    0.0000 C   0  0  2  0  0  0  0  0  0  0  0  0
    5.3517    1.1073    0.0000 C   0  0  2  0  0  0  0  0  0  0  0  0
    8.8158   -0.8927    0.0000 C   0  0  1  0  0  0  0  0  0  0  0  0
    6.2177   -0.3927    0.0000 C   0  0  0  0  0  0  0  0  0  0  0  0
    3.7690    1.4437    0.0000 C   0  0  0  0  0  0  0  0  0  0  0  0
    3.4030    2.8097    0.0000 C   0  0  0  0  0  0  0  0  0  0  0  0
    9.6818    0.6073    0.0000 C   0  0  0  0  0  0  0  0  0  0  0  0
   10.6818    0.6073    0.0000 C   0  0  0  0  0  0  0  0  0  0  0  0
    8.6818    0.6073    0.0000 C   0  0  0  0  0  0  0  0  0  0  0  0
    9.6818    1.6073    0.0000 C   0  0  0  0  0  0  0  0  0  0  0  0
   10.5478    2.1073    0.0000 C   0  0  0  0  0  0  0  0  0  0  0  0
    7.0837   -0.2727    0.0000 H   0  0  0  0  0  0  0  0  0  0  0  0
    6.5468   -1.5827    0.0000 H   0  0  0  0  0  0  0  0  0  0  0  0
    7.4128   -2.7027    0.0000 H   0  0  0  0  0  0  0  0  0  0  0  0
    5.0867    2.7007    0.0000 H   0  0  0  0  0  0  0  0  0  0  0  0
    8.8158   -2.5127    0.0000 H   0  0  0  0  0  0  0  0  0  0  0  0
    5.3192    0.4881    0.0000 H   0  0  0  0  0  0  0  0  0  0  0  0
    9.3527   -1.2027    0.0000 H   0  0  0  0  0  0  0  0  0  0  0  0
    5.6071   -0.2851    0.0000 H   0  0  0  0  0  0  0  0  0  0  0  0
    6.0056   -0.9753    0.0000 H   0  0  0  0  0  0  0  0  0  0  0  0
    3.2674    1.8081    0.0000 H   0  0  0  0  0  0  0  0  0  0  0  0
    3.3541    0.9829    0.0000 H   0  0  0  0  0  0  0  0  0  0  0  0
    3.8015    3.2847    0.0000 H   0  0  0  0  0  0  0  0  0  0  0  0
    3.0044    3.2847    0.0000 H   0  0  0  0  0  0  0  0  0  0  0  0
    5.6808   -2.0827    0.0000 H   0  0  0  0  0  0  0  0  0  0  0  0
    4.0162    3.7027    0.0000 H   0  0  0  0  0  0  0  0  0  0  0  0
    7.4128   -3.7027    0.0000 H   0  0  0  0  0  0  0  0  0  0  0  0
    6.5799    2.5793    0.0000 H   0  0  0  0  0  0  0  0  0  0  0  0
   10.2187   -2.0827    0.0000 H   0  0  0  0  0  0  0  0  0  0  0  0
   10.6818   -0.0127    0.0000 H   0  0  0  0  0  0  0  0  0  0  0  0
   11.3018    0.6073    0.0000 H   0  0  0  0  0  0  0  0  0  0  0  0
   10.6818    1.2273    0.0000 H   0  0  0  0  0  0  0  0  0  0  0  0
    8.6818    1.2273    0.0000 H   0  0  0  0  0  0  0  0  0  0  0  0
    8.0618    0.6073    0.0000 H   0  0  0  0  0  0  0  0  0  0  0  0
    8.6818   -0.0127    0.0000 H   0  0  0  0  0  0  0  0  0  0  0  0
    2.0000    2.6197    0.0000 H   0  0  0  0  0  0  0  0  0  0  0  0
    9.1448    1.9173    0.0000 H   0  0  0  0  0  0  0  0  0  0  0  0
   11.0848    1.7973    0.0000 H   0  0  0  0  0  0  0  0  0  0  0  0
   10.5478    2.7273    0.0000 H   0  0  0  0  0  0  0  0  0  0  0  0
  1 11  1  0  0  0  0
  1 18  1  0  0  0  0
 17  2  1  6  0  0  0
  2 19  1  0  0  0  0
  3 17  1  0  0  0  0
  3 20  1  0  0  0  0
 18  4  1  1  0  0  0
  4 22  1  0  0  0  0
 12  5  1  6  0  0  0
  5 40  1  0  0  0  0
 13  6  1  1  0  0  0
  6 41  1  0  0  0  0
 14  7  1  1  0  0  0
  7 42  1  0  0  0  0
 15  8  1  1  0  0  0
  8 43  1  0  0  0  0
 16  9  1  6  0  0  0
  9 44  1  0  0  0  0
 10 21  1  0  0  0  0
 10 51  1  0  0  0  0
 11 12  1  0  0  0  0
 11 19  1  1  0  0  0
 11 27  1  0  0  0  0
 12 14  1  0  0  0  0
 12 28  1  0  0  0  0
 13 15  1  0  0  0  0
 13 20  1  0  0  0  0
 13 21  1  0  0  0  0
 14 16  1  0  0  0  0
 14 29  1  0  0  0  0
 15 17  1  0  0  0  0
 15 30  1  0  0  0  0
 16 18  1  0  0  0  0
 16 31  1  0  0  0  0
 17 32  1  0  0  0  0
 18 33  1  0  0  0  0
 19 34  1  0  0  0  0
 19 35  1  0  0  0  0
 20 36  1  0  0  0  0
 20 37  1  0  0  0  0
 21 38  1  0  0  0  0
 21 39  1  0  0  0  0
 22 23  1  0  0  0  0
 22 24  1  0  0  0  0
 22 25  1  0  0  0  0
 23 45  1  0  0  0  0
 23 46  1  0  0  0  0
 23 47  1  0  0  0  0
 24 48  1  0  0  0  0
 24 49  1  0  0  0  0
 24 50  1  0  0  0  0
 25 26  2  0  0  0  0
 25 52  1  0  0  0  0
 26 53  1  0  0  0  0
 26 54  1  0  0  0  0
M  END
> <PUBCHEM_COMPOUND_CID>
11794150

> <PUBCHEM_COMPOUND_CANONICALIZED>
1

> <PUBCHEM_CACTVS_COMPLEXITY>
486

> <PUBCHEM_CACTVS_HBOND_ACCEPTOR>
10

> <PUBCHEM_CACTVS_HBOND_DONOR>
6

> <PUBCHEM_CACTVS_ROTATABLE_BOND>
7

> <PUBCHEM_CACTVS_SUBSKEYS>
AAADceB4PAAAAAAAAAAAAAAAAAAAASAAAAAkAAAAAAAAAAAAAAAAGgAACAAADFSwgAMCCAAABgCAACBCAAAAAAAgAAAIAAAAAAgRFAIAIAAiQAAFAAAHIAHAYAwIAAAAAAAAAAAAAAAAAAAAAAAAAAAAAA==

> <PUBCHEM_IUPAC_OPENEYE_NAME>
(2R,3S,4S,5R,6S)-2-[[(2R,3R,4R)-3,4-dihydroxy-4-(hydroxymethyl)tetrahydrofuran-2-yl]oxymethyl]-6-(1,1-dimethylallyloxy)tetrahydropyran-3,4,5-triol

> <PUBCHEM_IUPAC_CAS_NAME>
(2R,3S,4S,5R,6S)-2-[[(2R,3R,4R)-3,4-dihydroxy-4-(hydroxymethyl)-2-oxolanyl]oxymethyl]-6-(2-methylbut-3-en-2-yloxy)oxane-3,4,5-triol

> <PUBCHEM_IUPAC_NAME_MARKUP>
(2<I>R</I>,3<I>S</I>,4<I>S</I>,5<I>R</I>,6<I>S</I>)-2-[[(2<I>R</I>,3<I>R</I>,4<I>R</I>)-3,4-dihydroxy-4-(hydroxymethyl)oxolan-2-yl]oxymethyl]-6-(2-methylbut-3-en-2-yloxy)oxane-3,4,5-triol

> <PUBCHEM_IUPAC_NAME>
(2R,3S,4S,5R,6S)-2-[[(2R,3R,4R)-3,4-dihydroxy-4-(hydroxymethyl)oxolan-2-yl]oxymethyl]-6-(2-methylbut-3-en-2-yloxy)oxane-3,4,5-triol

> <PUBCHEM_IUPAC_SYSTEMATIC_NAME>
(2R,3S,4S,5R,6S)-2-[[(2R,3R,4R)-4-(hydroxymethyl)-3,4-bis(oxidanyl)oxolan-2-yl]oxymethyl]-6-(2-methylbut-3-en-2-yloxy)oxane-3,4,5-triol

> <PUBCHEM_IUPAC_TRADITIONAL_NAME>
(2R,3S,4S,5R,6S)-2-[[(2R,3R,4R)-3,4-dihydroxy-4-methylol-tetrahydrofuran-2-yl]oxymethyl]-6-(1,1-dimethylallyloxy)tetrahydropyran-3,4,5-triol

> <PUBCHEM_IUPAC_INCHI>
InChI=1S/C16H28O10/c1-4-15(2,3)26-13-11(20)10(19)9(18)8(25-13)5-23-14-12(21)16(22,6-17)7-24-14/h4,8-14,17-22H,1,5-7H2,2-3H3/t8-,9-,10+,11-,12+,13+,14-,16-/m1/s1

> <PUBCHEM_IUPAC_INCHIKEY>
BUKBJIBZOCTYLQ-UQTFRHSQSA-N

> <PUBCHEM_XLOGP3_AA>
-2.6

> <PUBCHEM_EXACT_MASS>
380.16824709

> <PUBCHEM_MOLECULAR_FORMULA>
C16H28O10

> <PUBCHEM_MOLECULAR_WEIGHT>
380.39

> <PUBCHEM_OPENEYE_CAN_SMILES>
CC(C)(C=C)OC1C(C(C(C(O1)COC2C(C(CO2)(CO)O)O)O)O)O

> <PUBCHEM_OPENEYE_ISO_SMILES>
CC(C)(C=C)O[C@H]1[C@@H]([C@H]([C@@H]([C@H](O1)CO[C@H]2[C@@H]([C@](CO2)(CO)O)O)O)O)O

> <PUBCHEM_CACTVS_TPSA>
158

> <PUBCHEM_MONOISOTOPIC_WEIGHT>
380.16824709

> <PUBCHEM_TOTAL_CHARGE>
0

> <PUBCHEM_HEAVY_ATOM_COUNT>
26

> <PUBCHEM_ATOM_DEF_STEREO_COUNT>
8

> <PUBCHEM_ATOM_UDEF_STEREO_COUNT>
0

> <PUBCHEM_BOND_DEF_STEREO_COUNT>
0

> <PUBCHEM_BOND_UDEF_STEREO_COUNT>
0

> <PUBCHEM_ISOTOPIC_ATOM_COUNT>
0

> <PUBCHEM_COMPONENT_COUNT>
1

> <PUBCHEM_CACTVS_TAUTO_COUNT>
-1

> <PUBCHEM_COORDINATE_TYPE>
1
5
255

> <PUBCHEM_BONDANNOTATIONS>
11  19  5
17  2  6
18  4  5
12  5  6
13  6  5
14  7  5
15  8  5
16  9  6

$$$$
