 
  -OEChem-10192104202D

 59 61  0     1  0  0  0  0  0999 V2000
    4.4026    0.6063    0.0000 O   0  0  0  0  0  0  0  0  0  0  0  0
    6.7485   -0.4856    0.0000 O   0  0  0  0  0  0  0  0  0  0  0  0
    6.7523    1.6900    0.0000 O   0  0  0  0  0  0  0  0  0  0  0  0
    3.7066    2.5754    0.0000 O   0  0  0  0  0  0  0  0  0  0  0  0
    7.7690    0.9139    0.0000 O   0  0  0  0  0  0  0  0  0  0  0  0
    5.7366    3.0930    0.0000 O   0  0  0  0  0  0  0  0  0  0  0  0
    7.7619   -2.8250    0.0000 O   0  0  0  0  0  0  0  0  0  0  0  0
    6.2619   -3.6911    0.0000 O   0  0  0  0  0  0  0  0  0  0  0  0
    4.0696    4.2690    0.0000 O   0  0  0  0  0  0  0  0  0  0  0  0
    4.6783   -1.1543    0.0000 N   0  0  0  0  0  0  0  0  0  0  0  0
    4.6783   -2.7638    0.0000 N   0  0  0  0  0  0  0  0  0  0  0  0
    2.8660   -0.9590    0.0000 N   0  0  0  0  0  0  0  0  0  0  0  0
    2.0000   -2.4590    0.0000 N   0  0  0  0  0  0  0  0  0  0  0  0
    2.8660   -3.9590    0.0000 N   0  0  0  0  0  0  0  0  0  0  0  0
    5.9405    0.1036    0.0000 C   0  0  3  0  0  0  0  0  0  0  0  0
    5.9422    1.1036    0.0000 C   0  0  3  0  0  0  0  0  0  0  0  0
    4.9889   -0.2038    0.0000 C   0  0  3  0  0  0  0  0  0  0  0  0
    4.9917    1.4143    0.0000 C   0  0  3  0  0  0  0  0  0  0  0  0
    4.6844    2.3658    0.0000 C   0  0  0  0  0  0  0  0  0  0  0  0
    5.2619   -1.9590    0.0000 C   0  0  0  0  0  0  0  0  0  0  0  0
    3.7320   -1.4590    0.0000 C   0  0  0  0  0  0  0  0  0  0  0  0
    3.7320   -2.4590    0.0000 C   0  0  0  0  0  0  0  0  0  0  0  0
    6.2619   -1.9590    0.0000 C   0  0  0  0  0  0  0  0  0  0  0  0
    7.6628   -0.0804    0.0000 C   0  0  0  0  0  0  0  0  0  0  0  0
    6.6495    2.6847    0.0000 C   0  0  0  0  0  0  0  0  0  0  0  0
    2.8660   -2.9590    0.0000 C   0  0  0  0  0  0  0  0  0  0  0  0
    6.7619   -2.8250    0.0000 C   0  0  0  0  0  0  0  0  0  0  0  0
    8.4708   -0.6696    0.0000 C   0  0  0  0  0  0  0  0  0  0  0  0
    3.3992    3.5270    0.0000 C   0  0  0  0  0  0  0  0  0  0  0  0
    7.4595    3.2711    0.0000 C   0  0  0  0  0  0  0  0  0  0  0  0
    2.0000   -1.4590    0.0000 C   0  0  0  0  0  0  0  0  0  0  0  0
    2.4214    3.7366    0.0000 C   0  0  0  0  0  0  0  0  0  0  0  0
    8.2619   -3.6911    0.0000 C   0  0  0  0  0  0  0  0  0  0  0  0
    9.2619   -3.6911    0.0000 C   0  0  0  0  0  0  0  0  0  0  0  0
    6.4934    0.3841    0.0000 H   0  0  0  0  0  0  0  0  0  0  0  0
    6.4942    0.8212    0.0000 H   0  0  0  0  0  0  0  0  0  0  0  0
    5.4266   -0.6429    0.0000 H   0  0  0  0  0  0  0  0  0  0  0  0
    4.3795    1.5123    0.0000 H   0  0  0  0  0  0  0  0  0  0  0  0
    5.2985    2.4511    0.0000 H   0  0  0  0  0  0  0  0  0  0  0  0
    4.7071    2.9854    0.0000 H   0  0  0  0  0  0  0  0  0  0  0  0
    6.8445   -1.7470    0.0000 H   0  0  0  0  0  0  0  0  0  0  0  0
    6.1542   -1.3484    0.0000 H   0  0  0  0  0  0  0  0  0  0  0  0
    8.1055   -1.1706    0.0000 H   0  0  0  0  0  0  0  0  0  0  0  0
    8.9717   -1.0349    0.0000 H   0  0  0  0  0  0  0  0  0  0  0  0
    8.8361   -0.1687    0.0000 H   0  0  0  0  0  0  0  0  0  0  0  0
    7.8231    2.7688    0.0000 H   0  0  0  0  0  0  0  0  0  0  0  0
    7.9617    3.6346    0.0000 H   0  0  0  0  0  0  0  0  0  0  0  0
    7.0960    3.7733    0.0000 H   0  0  0  0  0  0  0  0  0  0  0  0
    1.4631   -1.1490    0.0000 H   0  0  0  0  0  0  0  0  0  0  0  0
    2.3291   -4.2690    0.0000 H   0  0  0  0  0  0  0  0  0  0  0  0
    3.4030   -4.2690    0.0000 H   0  0  0  0  0  0  0  0  0  0  0  0
    2.5514    4.3429    0.0000 H   0  0  0  0  0  0  0  0  0  0  0  0
    1.8152    3.8666    0.0000 H   0  0  0  0  0  0  0  0  0  0  0  0
    2.2915    3.1304    0.0000 H   0  0  0  0  0  0  0  0  0  0  0  0
    7.6793   -3.9031    0.0000 H   0  0  0  0  0  0  0  0  0  0  0  0
    8.3695   -4.3017    0.0000 H   0  0  0  0  0  0  0  0  0  0  0  0
    9.2619   -4.3111    0.0000 H   0  0  0  0  0  0  0  0  0  0  0  0
    9.8819   -3.6911    0.0000 H   0  0  0  0  0  0  0  0  0  0  0  0
    9.2619   -3.0711    0.0000 H   0  0  0  0  0  0  0  0  0  0  0  0
  1 17  1  0  0  0  0
  1 18  1  0  0  0  0
  2 15  1  0  0  0  0
  2 24  1  0  0  0  0
  3 16  1  0  0  0  0
  3 25  1  0  0  0  0
  4 19  1  0  0  0  0
  4 29  1  0  0  0  0
  5 24  2  0  0  0  0
  6 25  2  0  0  0  0
  7 27  1  0  0  0  0
  7 33  1  0  0  0  0
  8 27  2  0  0  0  0
  9 29  2  0  0  0  0
 10 17  1  0  0  0  0
 10 20  1  0  0  0  0
 10 21  1  0  0  0  0
 11 20  2  0  0  0  0
 11 22  1  0  0  0  0
 12 21  2  0  0  0  0
 12 31  1  0  0  0  0
 13 26  1  0  0  0  0
 13 31  2  0  0  0  0
 14 26  1  0  0  0  0
 14 50  1  0  0  0  0
 14 51  1  0  0  0  0
 15 16  1  0  0  0  0
 15 17  1  0  0  0  0
 15 35  1  0  0  0  0
 16 18  1  0  0  0  0
 16 36  1  0  0  0  0
 17 37  1  0  0  0  0
 18 19  1  0  0  0  0
 18 38  1  0  0  0  0
 19 39  1  0  0  0  0
 19 40  1  0  0  0  0
 20 23  1  0  0  0  0
 21 22  1  0  0  0  0
 22 26  2  0  0  0  0
 23 27  1  0  0  0  0
 23 41  1  0  0  0  0
 23 42  1  0  0  0  0
 24 28  1  0  0  0  0
 25 30  1  0  0  0  0
 28 43  1  0  0  0  0
 28 44  1  0  0  0  0
 28 45  1  0  0  0  0
 29 32  1  0  0  0  0
 30 46  1  0  0  0  0
 30 47  1  0  0  0  0
 30 48  1  0  0  0  0
 31 49  1  0  0  0  0
 32 52  1  0  0  0  0
 32 53  1  0  0  0  0
 32 54  1  0  0  0  0
 33 34  1  0  0  0  0
 33 55  1  0  0  0  0
 33 56  1  0  0  0  0
 34 57  1  0  0  0  0
 34 58  1  0  0  0  0
 34 59  1  0  0  0  0
M  END
> <PUBCHEM_COMPOUND_CID>
386039

> <PUBCHEM_COMPOUND_CANONICALIZED>
1

> <PUBCHEM_CACTVS_COMPLEXITY>
784

> <PUBCHEM_CACTVS_HBOND_ACCEPTOR>
13

> <PUBCHEM_CACTVS_HBOND_DONOR>
1

> <PUBCHEM_CACTVS_ROTATABLE_BOND>
12

> <PUBCHEM_CACTVS_SUBSKEYS>
AAADceB7vAAAAAAAAAAAAAAAAAAAAWJAAAAsAAAAAAAAAFgB+AAAHgAQAAAACBzhlwYH+L9MFACoAQbxbACAgC0REKABUCE4VBCDSApAyEAfBAgPAALSACDwMAoAAAAAAAAAAAAAAAAAAAAAAAAAAAAAAA==

> <PUBCHEM_IUPAC_OPENEYE_NAME>
ethyl 2-[6-amino-9-[3,4-diacetoxy-5-(acetoxymethyl)tetrahydrofuran-2-yl]purin-8-yl]acetate

> <PUBCHEM_IUPAC_CAS_NAME>
2-[6-amino-9-[3,4-diacetyloxy-5-(acetyloxymethyl)-2-oxolanyl]-8-purinyl]acetic acid ethyl ester

> <PUBCHEM_IUPAC_NAME_MARKUP>
ethyl 2-[6-amino-9-[3,4-diacetyloxy-5-(acetyloxymethyl)oxolan-2-yl]purin-8-yl]acetate

> <PUBCHEM_IUPAC_NAME>
ethyl 2-[6-amino-9-[3,4-diacetyloxy-5-(acetyloxymethyl)oxolan-2-yl]purin-8-yl]acetate

> <PUBCHEM_IUPAC_SYSTEMATIC_NAME>
ethyl 2-[6-azanyl-9-[3,4-diacetyloxy-5-(acetyloxymethyl)oxolan-2-yl]purin-8-yl]ethanoate

> <PUBCHEM_IUPAC_TRADITIONAL_NAME>
2-[6-amino-9-[3,4-diacetoxy-5-(acetoxymethyl)tetrahydrofuran-2-yl]purin-8-yl]acetic acid ethyl ester

> <PUBCHEM_IUPAC_INCHI>
InChI=1S/C20H25N5O9/c1-5-30-14(29)6-13-24-15-18(21)22-8-23-19(15)25(13)20-17(33-11(4)28)16(32-10(3)27)12(34-20)7-31-9(2)26/h8,12,16-17,20H,5-7H2,1-4H3,(H2,21,22,23)

> <PUBCHEM_IUPAC_INCHIKEY>
JILPFSJURDTFKI-UHFFFAOYSA-N

> <PUBCHEM_XLOGP3_AA>
-0.5

> <PUBCHEM_EXACT_MASS>
479.16522739

> <PUBCHEM_MOLECULAR_FORMULA>
C20H25N5O9

> <PUBCHEM_MOLECULAR_WEIGHT>
479.4

> <PUBCHEM_OPENEYE_CAN_SMILES>
CCOC(=O)CC1=NC2=C(N=CN=C2N1C3C(C(C(O3)COC(=O)C)OC(=O)C)OC(=O)C)N

> <PUBCHEM_OPENEYE_ISO_SMILES>
CCOC(=O)CC1=NC2=C(N=CN=C2N1C3C(C(C(O3)COC(=O)C)OC(=O)C)OC(=O)C)N

> <PUBCHEM_CACTVS_TPSA>
184

> <PUBCHEM_MONOISOTOPIC_WEIGHT>
479.16522739

> <PUBCHEM_TOTAL_CHARGE>
0

> <PUBCHEM_HEAVY_ATOM_COUNT>
34

> <PUBCHEM_ATOM_DEF_STEREO_COUNT>
0

> <PUBCHEM_ATOM_UDEF_STEREO_COUNT>
4

> <PUBCHEM_BOND_DEF_STEREO_COUNT>
0

> <PUBCHEM_BOND_UDEF_STEREO_COUNT>
0

> <PUBCHEM_ISOTOPIC_ATOM_COUNT>
0

> <PUBCHEM_COMPONENT_COUNT>
1

> <PUBCHEM_CACTVS_TAUTO_COUNT>
-1

> <PUBCHEM_COORDINATE_TYPE>
1
5
255

> <PUBCHEM_BONDANNOTATIONS>
17  10  3
10  20  8
10  21  8
11  20  8
11  22  8
12  21  8
12  31  8
13  26  8
13  31  8
18  19  3
15  2  3
21  22  8
22  26  8
16  3  3

$$$$
