 
  -OEChem-10192104352D

 89 91  0     1  0  0  0  0  0999 V2000
   11.1972    6.0000    0.0000 P   0  0  0  0  0  0  0  0  0  0  0  0
    7.7331   -1.0000    0.0000 O   0  0  0  0  0  0  0  0  0  0  0  0
    6.0010   -1.0000    0.0000 O   0  0  0  0  0  0  0  0  0  0  0  0
    6.0010   -4.0000    0.0000 O   0  0  0  0  0  0  0  0  0  0  0  0
    7.7331    2.0000    0.0000 O   0  0  0  0  0  0  0  0  0  0  0  0
    4.2690   -4.0000    0.0000 O   0  0  0  0  0  0  0  0  0  0  0  0
    7.7331   -3.0000    0.0000 O   0  0  0  0  0  0  0  0  0  0  0  0
    9.4651    2.0000    0.0000 O   0  0  0  0  0  0  0  0  0  0  0  0
    4.2690   -3.0000    0.0000 O   0  0  0  0  0  0  0  0  0  0  0  0
    6.0010   -0.0000    0.0000 O   0  0  0  0  0  0  0  0  0  0  0  0
    9.4651   -0.0000    0.0000 O   0  0  0  0  0  0  0  0  0  0  0  0
    6.0010   -6.0000    0.0000 O   0  0  0  0  0  0  0  0  0  0  0  0
    4.2690   -7.0000    0.0000 O   0  0  0  0  0  0  0  0  0  0  0  0
    2.5369   -6.0000    0.0000 O   0  0  0  0  0  0  0  0  0  0  0  0
    3.4030   -1.5000    0.0000 O   0  0  0  0  0  0  0  0  0  0  0  0
    2.5369   -3.0000    0.0000 O   0  0  0  0  0  0  0  0  0  0  0  0
   11.1972    3.0000    0.0000 O   0  0  0  0  0  0  0  0  0  0  0  0
    7.7331    3.0000    0.0000 O   0  0  0  0  0  0  0  0  0  0  0  0
   11.1972    5.0000    0.0000 O   0  0  0  0  0  0  0  0  0  0  0  0
    7.7331    5.0000    0.0000 O   0  0  0  0  0  0  0  0  0  0  0  0
   11.1972    7.0000    0.0000 O   0  0  0  0  0  0  0  0  0  0  0  0
   12.1972    6.0000    0.0000 O   0  0  0  0  0  0  0  0  0  0  0  0
   10.1972    6.0000    0.0000 O   0  0  0  0  0  0  0  0  0  0  0  0
    6.0010   -3.0000    0.0000 C   0  0  2  0  0  0  0  0  0  0  0  0
    6.8671   -2.5000    0.0000 C   0  0  2  0  0  0  0  0  0  0  0  0
    7.7331   -0.0000    0.0000 C   0  0  2  0  0  0  0  0  0  0  0  0
    6.8671   -1.5000    0.0000 C   0  0  1  0  0  0  0  0  0  0  0  0
    5.1350   -2.5000    0.0000 C   0  0  1  0  0  0  0  0  0  0  0  0
    5.1350   -1.5000    0.0000 C   0  0  1  0  0  0  0  0  0  0  0  0
    6.8671    0.5000    0.0000 C   0  0  2  0  0  0  0  0  0  0  0  0
    8.5991    0.5000    0.0000 C   0  0  2  0  0  0  0  0  0  0  0  0
    6.8671    1.5000    0.0000 C   0  0  2  0  0  0  0  0  0  0  0  0
    8.5991    1.5000    0.0000 C   0  0  1  0  0  0  0  0  0  0  0  0
    5.1350   -4.5000    0.0000 C   0  0  1  0  0  0  0  0  0  0  0  0
    5.1350   -5.5000    0.0000 C   0  0  1  0  0  0  0  0  0  0  0  0
    4.2690   -6.0000    0.0000 C   0  0  2  0  0  0  0  0  0  0  0  0
    3.4030   -5.5000    0.0000 C   0  0  2  0  0  0  0  0  0  0  0  0
    3.4030   -4.5000    0.0000 C   0  0  1  0  0  0  0  0  0  0  0  0
    4.2690   -1.0000    0.0000 C   0  0  0  0  0  0  0  0  0  0  0  0
    6.0010    2.0000    0.0000 C   0  0  0  0  0  0  0  0  0  0  0  0
    9.4651    3.0000    0.0000 C   0  0  2  0  0  0  0  0  0  0  0  0
    2.5369   -4.0000    0.0000 C   0  0  0  0  0  0  0  0  0  0  0  0
   10.3312    3.5000    0.0000 C   0  0  1  0  0  0  0  0  0  0  0  0
    8.5991    3.5000    0.0000 C   0  0  2  0  0  0  0  0  0  0  0  0
   10.3312    4.5000    0.0000 C   0  0  0  0  0  0  0  0  0  0  0  0
    8.5991    4.5000    0.0000 C   0  0  0  0  0  0  0  0  0  0  0  0
    5.4641   -3.3100    0.0000 H   0  0  0  0  0  0  0  0  0  0  0  0
    6.8671   -3.1200    0.0000 H   0  0  0  0  0  0  0  0  0  0  0  0
    7.1962   -0.3100    0.0000 H   0  0  0  0  0  0  0  0  0  0  0  0
    7.4040   -1.8100    0.0000 H   0  0  0  0  0  0  0  0  0  0  0  0
    5.1350   -3.1200    0.0000 H   0  0  0  0  0  0  0  0  0  0  0  0
    5.1350   -0.8800    0.0000 H   0  0  0  0  0  0  0  0  0  0  0  0
    6.8671   -0.1200    0.0000 H   0  0  0  0  0  0  0  0  0  0  0  0
    8.5991   -0.1200    0.0000 H   0  0  0  0  0  0  0  0  0  0  0  0
    6.8671    2.1200    0.0000 H   0  0  0  0  0  0  0  0  0  0  0  0
    8.5991    2.1200    0.0000 H   0  0  0  0  0  0  0  0  0  0  0  0
    5.1350   -3.8800    0.0000 H   0  0  0  0  0  0  0  0  0  0  0  0
    5.1350   -6.1200    0.0000 H   0  0  0  0  0  0  0  0  0  0  0  0
    3.7320   -6.3100    0.0000 H   0  0  0  0  0  0  0  0  0  0  0  0
    3.4030   -6.1200    0.0000 H   0  0  0  0  0  0  0  0  0  0  0  0
    3.4030   -3.8800    0.0000 H   0  0  0  0  0  0  0  0  0  0  0  0
    4.6675   -0.5251    0.0000 H   0  0  0  0  0  0  0  0  0  0  0  0
    3.8705   -0.5251    0.0000 H   0  0  0  0  0  0  0  0  0  0  0  0
    6.3110    2.5369    0.0000 H   0  0  0  0  0  0  0  0  0  0  0  0
    5.4641    2.3100    0.0000 H   0  0  0  0  0  0  0  0  0  0  0  0
    5.6910    1.4631    0.0000 H   0  0  0  0  0  0  0  0  0  0  0  0
   10.0021    2.6900    0.0000 H   0  0  0  0  0  0  0  0  0  0  0  0
    7.7331   -3.6200    0.0000 H   0  0  0  0  0  0  0  0  0  0  0  0
    3.7320   -2.6900    0.0000 H   0  0  0  0  0  0  0  0  0  0  0  0
    1.9264   -3.8923    0.0000 H   0  0  0  0  0  0  0  0  0  0  0  0
    2.3249   -4.5826    0.0000 H   0  0  0  0  0  0  0  0  0  0  0  0
    5.4641    0.3100    0.0000 H   0  0  0  0  0  0  0  0  0  0  0  0
   10.0021    0.3100    0.0000 H   0  0  0  0  0  0  0  0  0  0  0  0
   10.8681    3.8100    0.0000 H   0  0  0  0  0  0  0  0  0  0  0  0
    8.5991    2.8800    0.0000 H   0  0  0  0  0  0  0  0  0  0  0  0
    6.0010   -6.6200    0.0000 H   0  0  0  0  0  0  0  0  0  0  0  0
    3.7320   -7.3100    0.0000 H   0  0  0  0  0  0  0  0  0  0  0  0
    2.0000   -5.6900    0.0000 H   0  0  0  0  0  0  0  0  0  0  0  0
    2.8660   -1.1900    0.0000 H   0  0  0  0  0  0  0  0  0  0  0  0
   10.1191    5.0826    0.0000 H   0  0  0  0  0  0  0  0  0  0  0  0
    9.7206    4.3923    0.0000 H   0  0  0  0  0  0  0  0  0  0  0  0
    9.2097    4.3923    0.0000 H   0  0  0  0  0  0  0  0  0  0  0  0
    8.8112    5.0826    0.0000 H   0  0  0  0  0  0  0  0  0  0  0  0
    2.0000   -2.6900    0.0000 H   0  0  0  0  0  0  0  0  0  0  0  0
   11.7341    3.3100    0.0000 H   0  0  0  0  0  0  0  0  0  0  0  0
    7.1962    3.3100    0.0000 H   0  0  0  0  0  0  0  0  0  0  0  0
    7.7331    5.6200    0.0000 H   0  0  0  0  0  0  0  0  0  0  0  0
   11.7341    7.3100    0.0000 H   0  0  0  0  0  0  0  0  0  0  0  0
   12.5072    5.4631    0.0000 H   0  0  0  0  0  0  0  0  0  0  0  0
  1 19  1  0  0  0  0
  1 21  1  0  0  0  0
  1 22  1  0  0  0  0
  1 23  2  0  0  0  0
 26  2  1  6  0  0  0
 27  2  1  6  0  0  0
  3 27  1  0  0  0  0
  3 29  1  0  0  0  0
 24  4  1  1  0  0  0
 34  4  1  6  0  0  0
  5 32  1  0  0  0  0
  5 33  1  0  0  0  0
  6 34  1  0  0  0  0
  6 38  1  0  0  0  0
 25  7  1  6  0  0  0
  7 68  1  0  0  0  0
 33  8  1  1  0  0  0
 41  8  1  1  0  0  0
 28  9  1  6  0  0  0
  9 69  1  0  0  0  0
 30 10  1  1  0  0  0
 10 72  1  0  0  0  0
 31 11  1  6  0  0  0
 11 73  1  0  0  0  0
 35 12  1  6  0  0  0
 12 76  1  0  0  0  0
 36 13  1  1  0  0  0
 13 77  1  0  0  0  0
 37 14  1  1  0  0  0
 14 78  1  0  0  0  0
 15 39  1  0  0  0  0
 15 79  1  0  0  0  0
 16 42  1  0  0  0  0
 16 84  1  0  0  0  0
 43 17  1  1  0  0  0
 17 85  1  0  0  0  0
 44 18  1  1  0  0  0
 18 86  1  0  0  0  0
 19 45  1  0  0  0  0
 20 46  1  0  0  0  0
 20 87  1  0  0  0  0
 21 88  1  0  0  0  0
 22 89  1  0  0  0  0
 24 25  1  0  0  0  0
 24 28  1  0  0  0  0
 24 47  1  0  0  0  0
 25 27  1  0  0  0  0
 25 48  1  0  0  0  0
 26 30  1  0  0  0  0
 26 31  1  0  0  0  0
 26 49  1  0  0  0  0
 27 50  1  0  0  0  0
 28 29  1  0  0  0  0
 28 51  1  0  0  0  0
 29 39  1  1  0  0  0
 29 52  1  0  0  0  0
 30 32  1  0  0  0  0
 30 53  1  0  0  0  0
 31 33  1  0  0  0  0
 31 54  1  0  0  0  0
 32 40  1  6  0  0  0
 32 55  1  0  0  0  0
 33 56  1  0  0  0  0
 34 35  1  0  0  0  0
 34 57  1  0  0  0  0
 35 36  1  0  0  0  0
 35 58  1  0  0  0  0
 36 37  1  0  0  0  0
 36 59  1  0  0  0  0
 37 38  1  0  0  0  0
 37 60  1  0  0  0  0
 38 42  1  1  0  0  0
 38 61  1  0  0  0  0
 39 62  1  0  0  0  0
 39 63  1  0  0  0  0
 40 64  1  0  0  0  0
 40 65  1  0  0  0  0
 40 66  1  0  0  0  0
 41 43  1  0  0  0  0
 41 44  1  0  0  0  0
 41 67  1  0  0  0  0
 42 70  1  0  0  0  0
 42 71  1  0  0  0  0
 43 45  1  0  0  0  0
 43 74  1  0  0  0  0
 44 46  1  0  0  0  0
 44 75  1  0  0  0  0
 45 80  1  0  0  0  0
 45 81  1  0  0  0  0
 46 82  1  0  0  0  0
 46 83  1  0  0  0  0
M  END
> <PUBCHEM_COMPOUND_CID>
50909877

> <PUBCHEM_COMPOUND_CANONICALIZED>
1

> <PUBCHEM_CACTVS_COMPLEXITY>
974

> <PUBCHEM_CACTVS_HBOND_ACCEPTOR>
22

> <PUBCHEM_CACTVS_HBOND_DONOR>
14

> <PUBCHEM_CACTVS_ROTATABLE_BOND>
14

> <PUBCHEM_CACTVS_SUBSKEYS>
AAADcfB4PgIAAAAAAAAAAAAAAAAAAAAAAAAkSJAAAAAAAAAAAAAAGgAACCAACBSwgAMCCAAABxAAQAAAAIAAAAAAAAAAAAAAAAAREAIAAAAiQAAFAAAHAAHAYAwAAAAAAAAAAAAAAAAAAAAAAAAAAAAAAA==

> <PUBCHEM_IUPAC_OPENEYE_NAME>
[(2R,3S,4S)-3-[(2S,3R,4R,5S,6S)-4-[(2R,3R,4S,5R,6R)-3,5-dihydroxy-6-(hydroxymethyl)-4-[(2R,3R,4S,5R,6R)-3,4,5-trihydroxy-6-(hydroxymethyl)tetrahydropyran-2-yl]oxy-tetrahydropyran-2-yl]oxy-3,5-dihydroxy-6-methyl-tetrahydropyran-2-yl]oxy-2,4,5-trihydroxy-pentyl] dihydrogen phosphate

> <PUBCHEM_IUPAC_CAS_NAME>
[(2R,3S,4S)-3-[[(2S,3R,4R,5S,6S)-4-[[(2R,3R,4S,5R,6R)-3,5-dihydroxy-6-(hydroxymethyl)-4-[[(2R,3R,4S,5R,6R)-3,4,5-trihydroxy-6-(hydroxymethyl)-2-oxanyl]oxy]-2-oxanyl]oxy]-3,5-dihydroxy-6-methyl-2-oxanyl]oxy]-2,4,5-trihydroxypentyl] dihydrogen phosphate

> <PUBCHEM_IUPAC_NAME_MARKUP>
[(2<I>R</I>,3<I>S</I>,4<I>S</I>)-3-[(2<I>S</I>,3<I>R</I>,4<I>R</I>,5<I>S</I>,6<I>S</I>)-4-[(2<I>R</I>,3<I>R</I>,4<I>S</I>,5<I>R</I>,6<I>R</I>)-3,5-dihydroxy-6-(hydroxymethyl)-4-[(2<I>R</I>,3<I>R</I>,4<I>S</I>,5<I>R</I>,6<I>R</I>)-3,4,5-trihydroxy-6-(hydroxymethyl)oxan-2-yl]oxyoxan-2-yl]oxy-3,5-dihydroxy-6-methyloxan-2-yl]oxy-2,4,5-trihydroxypentyl] dihydrogen phosphate

> <PUBCHEM_IUPAC_NAME>
[(2R,3S,4S)-3-[(2S,3R,4R,5S,6S)-4-[(2R,3R,4S,5R,6R)-3,5-dihydroxy-6-(hydroxymethyl)-4-[(2R,3R,4S,5R,6R)-3,4,5-trihydroxy-6-(hydroxymethyl)oxan-2-yl]oxyoxan-2-yl]oxy-3,5-dihydroxy-6-methyloxan-2-yl]oxy-2,4,5-trihydroxypentyl] dihydrogen phosphate

> <PUBCHEM_IUPAC_SYSTEMATIC_NAME>
[(2R,3S,4S)-3-[(2S,3R,4R,5S,6S)-4-[(2R,3R,4S,5R,6R)-6-(hydroxymethyl)-4-[(2R,3R,4S,5R,6R)-6-(hydroxymethyl)-3,4,5-tris(oxidanyl)oxan-2-yl]oxy-3,5-bis(oxidanyl)oxan-2-yl]oxy-6-methyl-3,5-bis(oxidanyl)oxan-2-yl]oxy-2,4,5-tris(oxidanyl)pentyl] dihydrogen phosphate

> <PUBCHEM_IUPAC_TRADITIONAL_NAME>
[(2R,3S,4S)-3-[(2S,3R,4R,5S,6S)-4-[(2R,3R,4S,5R,6R)-3,5-dihydroxy-6-methylol-4-[(2R,3R,4S,5R,6R)-3,4,5-trihydroxy-6-methylol-tetrahydropyran-2-yl]oxy-tetrahydropyran-2-yl]oxy-3,5-dihydroxy-6-methyl-tetrahydropyran-2-yl]oxy-2,4,5-trihydroxy-pentyl] dihydrogen phosphate

> <PUBCHEM_IUPAC_INCHI>
InChI=1S/C23H43O22P/c1-6-11(29)19(16(34)22(40-6)43-18(7(27)2-24)8(28)5-39-46(36,37)38)44-23-17(35)20(13(31)10(4-26)42-23)45-21-15(33)14(32)12(30)9(3-25)41-21/h6-35H,2-5H2,1H3,(H2,36,37,38)/t6-,7-,8+,9+,10+,11-,12-,13+,14-,15+,16+,17+,18-,19+,20-,21+,22-,23+/m0/s1

> <PUBCHEM_IUPAC_INCHIKEY>
YCKIPIFPDPUHBC-GVNQVVGMSA-N

> <PUBCHEM_XLOGP3_AA>
-8.4

> <PUBCHEM_EXACT_MASS>
702.19835999

> <PUBCHEM_MOLECULAR_FORMULA>
C23H43O22P

> <PUBCHEM_MOLECULAR_WEIGHT>
702.5

> <PUBCHEM_OPENEYE_CAN_SMILES>
CC1C(C(C(C(O1)OC(C(CO)O)C(COP(=O)(O)O)O)O)OC2C(C(C(C(O2)CO)O)OC3C(C(C(C(O3)CO)O)O)O)O)O

> <PUBCHEM_OPENEYE_ISO_SMILES>
C[C@H]1[C@@H]([C@H]([C@H]([C@@H](O1)O[C@@H]([C@H](CO)O)[C@@H](COP(=O)(O)O)O)O)O[C@@H]2[C@@H]([C@H]([C@@H]([C@H](O2)CO)O)O[C@@H]3[C@@H]([C@H]([C@H]([C@H](O3)CO)O)O)O)O)O

> <PUBCHEM_CACTVS_TPSA>
365

> <PUBCHEM_MONOISOTOPIC_WEIGHT>
702.19835999

> <PUBCHEM_TOTAL_CHARGE>
0

> <PUBCHEM_HEAVY_ATOM_COUNT>
46

> <PUBCHEM_ATOM_DEF_STEREO_COUNT>
18

> <PUBCHEM_ATOM_UDEF_STEREO_COUNT>
0

> <PUBCHEM_BOND_DEF_STEREO_COUNT>
0

> <PUBCHEM_BOND_UDEF_STEREO_COUNT>
0

> <PUBCHEM_ISOTOPIC_ATOM_COUNT>
0

> <PUBCHEM_COMPONENT_COUNT>
1

> <PUBCHEM_CACTVS_TAUTO_COUNT>
-1

> <PUBCHEM_COORDINATE_TYPE>
1
5
255

> <PUBCHEM_BONDANNOTATIONS>
30  10  5
31  11  6
35  12  6
36  13  5
37  14  5
43  17  5
44  18  5
26  2  6
27  2  6
29  39  5
32  40  6
38  42  5
24  4  5
34  4  6
25  7  6
33  8  5
41  8  5
28  9  6

$$$$
