 
  -OEChem-10192103342D

100101  0     1  0  0  0  0  0999 V2000
   12.0632    7.0000    0.0000 O   0  0  0  0  0  0  0  0  0  0  0  0
   14.6613    8.5000    0.0000 O   0  0  0  0  0  0  0  0  0  0  0  0
   12.9292    9.5000    0.0000 O   0  0  0  0  0  0  0  0  0  0  0  0
    4.2690   -6.5000    0.0000 O   0  0  0  0  0  0  0  0  0  0  0  0
   10.3312    8.0000    0.0000 O   0  0  0  0  0  0  0  0  0  0  0  0
    6.0010   -6.5000    0.0000 O   0  0  0  0  0  0  0  0  0  0  0  0
    4.2690   -9.5000    0.0000 O   0  0  0  0  0  0  0  0  0  0  0  0
    2.5369   -8.5000    0.0000 O   0  0  0  0  0  0  0  0  0  0  0  0
   11.1972    3.5000    0.0000 O   0  0  0  0  0  0  0  0  0  0  0  0
    2.5369   -5.5000    0.0000 O   0  0  0  0  0  0  0  0  0  0  0  0
   15.5273    8.0000    0.0000 O   0  0  0  0  0  0  0  0  0  0  0  0
    6.8671   -7.0000    0.0000 O   0  0  0  0  0  0  0  0  0  0  0  0
    6.8671   -4.0000    0.0000 O   0  0  0  0  0  0  0  0  0  0  0  0
   10.3312    1.0000    0.0000 O   0  0  0  0  0  0  0  0  0  0  0  0
    8.5991   -2.0000    0.0000 O   0  0  0  0  0  0  0  0  0  0  0  0
   14.6613    6.5000    0.0000 N   0  0  0  0  0  0  0  0  0  0  0  0
    6.0010   -8.5000    0.0000 N   0  0  0  0  0  0  0  0  0  0  0  0
   13.7953    7.0000    0.0000 C   0  0  3  0  0  0  0  0  0  0  0  0
   12.9292    6.5000    0.0000 C   0  0  3  0  0  0  0  0  0  0  0  0
   13.7953    8.0000    0.0000 C   0  0  3  0  0  0  0  0  0  0  0  0
   12.9292    8.5000    0.0000 C   0  0  3  0  0  0  0  0  0  0  0  0
   12.0632    8.0000    0.0000 C   0  0  3  0  0  0  0  0  0  0  0  0
   12.9292    5.5000    0.0000 C   0  0  0  0  0  0  0  0  0  0  0  0
   11.1972    8.5000    0.0000 C   0  0  0  0  0  0  0  0  0  0  0  0
   12.0632    5.0000    0.0000 C   0  0  0  0  0  0  0  0  0  0  0  0
    5.1350   -8.0000    0.0000 C   0  0  3  0  0  0  0  0  0  0  0  0
    4.2690   -8.5000    0.0000 C   0  0  3  0  0  0  0  0  0  0  0  0
    3.4030   -8.0000    0.0000 C   0  0  2  0  0  0  0  0  0  0  0  0
    3.4030   -7.0000    0.0000 C   0  0  3  0  0  0  0  0  0  0  0  0
    5.1350   -7.0000    0.0000 C   0  0  3  0  0  0  0  0  0  0  0  0
   12.0632    4.0000    0.0000 C   0  0  0  0  0  0  0  0  0  0  0  0
   15.5273    7.0000    0.0000 C   0  0  0  0  0  0  0  0  0  0  0  0
    2.5369   -6.5000    0.0000 C   0  0  0  0  0  0  0  0  0  0  0  0
   16.3933    6.5000    0.0000 C   0  0  0  0  0  0  0  0  0  0  0  0
    6.0010   -5.5000    0.0000 C   0  0  0  0  0  0  0  0  0  0  0  0
    6.8671   -8.0000    0.0000 C   0  0  0  0  0  0  0  0  0  0  0  0
   11.1972    2.5000    0.0000 C   0  0  0  0  0  0  0  0  0  0  0  0
    6.8671   -5.0000    0.0000 C   0  0  0  0  0  0  0  0  0  0  0  0
    7.7331   -8.5000    0.0000 C   0  0  0  0  0  0  0  0  0  0  0  0
   10.3312    2.0000    0.0000 C   0  0  0  0  0  0  0  0  0  0  0  0
    9.4651   -0.5000    0.0000 C   0  0  3  0  0  0  0  0  0  0  0  0
    9.4651    0.5000    0.0000 C   0  0  0  0  0  0  0  0  0  0  0  0
    7.7331   -3.5000    0.0000 C   0  0  0  0  0  0  0  0  0  0  0  0
    8.5991   -1.0000    0.0000 C   0  0  0  0  0  0  0  0  0  0  0  0
    7.7331   -2.5000    0.0000 C   0  0  0  0  0  0  0  0  0  0  0  0
   10.3312   -1.0000    0.0000 C   0  0  0  0  0  0  0  0  0  0  0  0
   13.7953    6.3800    0.0000 H   0  0  0  0  0  0  0  0  0  0  0  0
   12.3923    6.1900    0.0000 H   0  0  0  0  0  0  0  0  0  0  0  0
   14.3322    7.6900    0.0000 H   0  0  0  0  0  0  0  0  0  0  0  0
   12.3923    8.8100    0.0000 H   0  0  0  0  0  0  0  0  0  0  0  0
   11.5263    7.6900    0.0000 H   0  0  0  0  0  0  0  0  0  0  0  0
   13.1413    4.9174    0.0000 H   0  0  0  0  0  0  0  0  0  0  0  0
   13.5398    5.6077    0.0000 H   0  0  0  0  0  0  0  0  0  0  0  0
   14.6613    5.8800    0.0000 H   0  0  0  0  0  0  0  0  0  0  0  0
   11.5957    8.9750    0.0000 H   0  0  0  0  0  0  0  0  0  0  0  0
   10.7987    8.9750    0.0000 H   0  0  0  0  0  0  0  0  0  0  0  0
   11.8512    5.5826    0.0000 H   0  0  0  0  0  0  0  0  0  0  0  0
   11.4526    4.8923    0.0000 H   0  0  0  0  0  0  0  0  0  0  0  0
    5.6720   -7.6900    0.0000 H   0  0  0  0  0  0  0  0  0  0  0  0
    4.8059   -8.8100    0.0000 H   0  0  0  0  0  0  0  0  0  0  0  0
    3.4030   -8.6200    0.0000 H   0  0  0  0  0  0  0  0  0  0  0  0
    3.4030   -6.3800    0.0000 H   0  0  0  0  0  0  0  0  0  0  0  0
    5.1350   -6.3800    0.0000 H   0  0  0  0  0  0  0  0  0  0  0  0
   14.6613    9.1200    0.0000 H   0  0  0  0  0  0  0  0  0  0  0  0
   12.3923    9.8100    0.0000 H   0  0  0  0  0  0  0  0  0  0  0  0
   12.2753    3.4174    0.0000 H   0  0  0  0  0  0  0  0  0  0  0  0
   12.6738    4.1077    0.0000 H   0  0  0  0  0  0  0  0  0  0  0  0
    1.9264   -6.3923    0.0000 H   0  0  0  0  0  0  0  0  0  0  0  0
    2.3249   -7.0826    0.0000 H   0  0  0  0  0  0  0  0  0  0  0  0
    6.0010   -9.1200    0.0000 H   0  0  0  0  0  0  0  0  0  0  0  0
    9.7942    8.3100    0.0000 H   0  0  0  0  0  0  0  0  0  0  0  0
    3.7320   -9.8100    0.0000 H   0  0  0  0  0  0  0  0  0  0  0  0
    2.0000   -8.1900    0.0000 H   0  0  0  0  0  0  0  0  0  0  0  0
   16.0833    5.9631    0.0000 H   0  0  0  0  0  0  0  0  0  0  0  0
   16.9303    6.1900    0.0000 H   0  0  0  0  0  0  0  0  0  0  0  0
   16.7033    7.0369    0.0000 H   0  0  0  0  0  0  0  0  0  0  0  0
    5.7890   -4.9174    0.0000 H   0  0  0  0  0  0  0  0  0  0  0  0
    5.3905   -5.6077    0.0000 H   0  0  0  0  0  0  0  0  0  0  0  0
    2.0000   -5.1900    0.0000 H   0  0  0  0  0  0  0  0  0  0  0  0
   11.4092    1.9174    0.0000 H   0  0  0  0  0  0  0  0  0  0  0  0
   11.8078    2.6077    0.0000 H   0  0  0  0  0  0  0  0  0  0  0  0
    7.0791   -5.5826    0.0000 H   0  0  0  0  0  0  0  0  0  0  0  0
    7.4776   -4.8923    0.0000 H   0  0  0  0  0  0  0  0  0  0  0  0
    7.4231   -9.0369    0.0000 H   0  0  0  0  0  0  0  0  0  0  0  0
    8.2700   -8.8100    0.0000 H   0  0  0  0  0  0  0  0  0  0  0  0
    8.0431   -7.9631    0.0000 H   0  0  0  0  0  0  0  0  0  0  0  0
   10.1191    2.5826    0.0000 H   0  0  0  0  0  0  0  0  0  0  0  0
    9.7206    1.8923    0.0000 H   0  0  0  0  0  0  0  0  0  0  0  0
   10.0021   -0.1900    0.0000 H   0  0  0  0  0  0  0  0  0  0  0  0
    9.2531    1.0826    0.0000 H   0  0  0  0  0  0  0  0  0  0  0  0
    8.8546    0.3923    0.0000 H   0  0  0  0  0  0  0  0  0  0  0  0
    7.9451   -4.0826    0.0000 H   0  0  0  0  0  0  0  0  0  0  0  0
    8.3437   -3.3923    0.0000 H   0  0  0  0  0  0  0  0  0  0  0  0
    8.3871   -0.4174    0.0000 H   0  0  0  0  0  0  0  0  0  0  0  0
    7.9885   -1.1077    0.0000 H   0  0  0  0  0  0  0  0  0  0  0  0
    7.5210   -1.9174    0.0000 H   0  0  0  0  0  0  0  0  0  0  0  0
    7.1225   -2.6077    0.0000 H   0  0  0  0  0  0  0  0  0  0  0  0
   10.0212   -1.5369    0.0000 H   0  0  0  0  0  0  0  0  0  0  0  0
   10.8681   -1.3100    0.0000 H   0  0  0  0  0  0  0  0  0  0  0  0
   10.6412   -0.4631    0.0000 H   0  0  0  0  0  0  0  0  0  0  0  0
  1 19  1  0  0  0  0
  1 22  1  0  0  0  0
  2 20  1  0  0  0  0
  2 64  1  0  0  0  0
  3 21  1  0  0  0  0
  3 65  1  0  0  0  0
  4 29  1  0  0  0  0
  4 30  1  0  0  0  0
  5 24  1  0  0  0  0
  5 71  1  0  0  0  0
  6 30  1  0  0  0  0
  6 35  1  0  0  0  0
  7 27  1  0  0  0  0
  7 72  1  0  0  0  0
 28  8  1  1  0  0  0
  8 73  1  0  0  0  0
  9 31  1  0  0  0  0
  9 37  1  0  0  0  0
 10 33  1  0  0  0  0
 10 79  1  0  0  0  0
 11 32  2  0  0  0  0
 12 36  2  0  0  0  0
 13 38  1  0  0  0  0
 13 43  1  0  0  0  0
 14 40  1  0  0  0  0
 14 42  1  0  0  0  0
 15 44  1  0  0  0  0
 15 45  1  0  0  0  0
 16 18  1  0  0  0  0
 16 32  1  0  0  0  0
 16 54  1  0  0  0  0
 17 26  1  0  0  0  0
 17 36  1  0  0  0  0
 17 70  1  0  0  0  0
 18 19  1  0  0  0  0
 18 20  1  0  0  0  0
 18 47  1  0  0  0  0
 19 23  1  0  0  0  0
 19 48  1  0  0  0  0
 20 21  1  0  0  0  0
 20 49  1  0  0  0  0
 21 22  1  0  0  0  0
 21 50  1  0  0  0  0
 22 24  1  0  0  0  0
 22 51  1  0  0  0  0
 23 25  1  0  0  0  0
 23 52  1  0  0  0  0
 23 53  1  0  0  0  0
 24 55  1  0  0  0  0
 24 56  1  0  0  0  0
 25 31  1  0  0  0  0
 25 57  1  0  0  0  0
 25 58  1  0  0  0  0
 26 27  1  0  0  0  0
 26 30  1  0  0  0  0
 26 59  1  0  0  0  0
 27 28  1  0  0  0  0
 27 60  1  0  0  0  0
 28 29  1  0  0  0  0
 28 61  1  0  0  0  0
 29 33  1  0  0  0  0
 29 62  1  0  0  0  0
 30 63  1  0  0  0  0
 31 66  1  0  0  0  0
 31 67  1  0  0  0  0
 32 34  1  0  0  0  0
 33 68  1  0  0  0  0
 33 69  1  0  0  0  0
 34 74  1  0  0  0  0
 34 75  1  0  0  0  0
 34 76  1  0  0  0  0
 35 38  1  0  0  0  0
 35 77  1  0  0  0  0
 35 78  1  0  0  0  0
 36 39  1  0  0  0  0
 37 40  1  0  0  0  0
 37 80  1  0  0  0  0
 37 81  1  0  0  0  0
 38 82  1  0  0  0  0
 38 83  1  0  0  0  0
 39 84  1  0  0  0  0
 39 85  1  0  0  0  0
 39 86  1  0  0  0  0
 40 87  1  0  0  0  0
 40 88  1  0  0  0  0
 41 42  1  0  0  0  0
 41 44  1  0  0  0  0
 41 46  1  0  0  0  0
 41 89  1  0  0  0  0
 42 90  1  0  0  0  0
 42 91  1  0  0  0  0
 43 45  1  0  0  0  0
 43 92  1  0  0  0  0
 43 93  1  0  0  0  0
 44 94  1  0  0  0  0
 44 95  1  0  0  0  0
 45 96  1  0  0  0  0
 45 97  1  0  0  0  0
 46 98  1  0  0  0  0
 46 99  1  0  0  0  0
 46100  1  0  0  0  0
M  END
> <PUBCHEM_COMPOUND_CID>
137413033

> <PUBCHEM_COMPOUND_CANONICALIZED>
1

> <PUBCHEM_CACTVS_COMPLEXITY>
858

> <PUBCHEM_CACTVS_HBOND_ACCEPTOR>
15

> <PUBCHEM_CACTVS_HBOND_DONOR>
8

> <PUBCHEM_CACTVS_ROTATABLE_BOND>
22

> <PUBCHEM_CACTVS_SUBSKEYS>
AAADcfB7PAAAAAAAAAAAAAAAAAAAAAAAAAAkSAAAAAAAAAAAAAAAHgAQCAAADTzxgAcCCALABgAIAAEQEAAAAAAAAAAAAIAIAAATEAIAgAAnQAAHFgCXAAHw8K8AAAAAAAAAAAAAAAAAAAAAAAAAAAAAAA==

> <PUBCHEM_IUPAC_OPENEYE_NAME>
N-[2-[3-[2-[3-[2-[2-[(5R)-3-acetamido-4,5-dihydroxy-6-(hydroxymethyl)tetrahydropyran-2-yl]oxyethoxy]ethoxy]-2-methyl-propoxy]ethoxy]propyl]-4,5-dihydroxy-6-(hydroxymethyl)tetrahydropyran-3-yl]acetamide

> <PUBCHEM_IUPAC_CAS_NAME>
N-[2-[3-[2-[3-[2-[2-[[(5R)-3-acetamido-4,5-dihydroxy-6-(hydroxymethyl)-2-oxanyl]oxy]ethoxy]ethoxy]-2-methylpropoxy]ethoxy]propyl]-4,5-dihydroxy-6-(hydroxymethyl)-3-oxanyl]acetamide

> <PUBCHEM_IUPAC_NAME_MARKUP>
<I>N</I>-[2-[3-[2-[3-[2-[2-[(5<I>R</I>)-3-acetamido-4,5-dihydroxy-6-(hydroxymethyl)oxan-2-yl]oxyethoxy]ethoxy]-2-methylpropoxy]ethoxy]propyl]-4,5-dihydroxy-6-(hydroxymethyl)oxan-3-yl]acetamide

> <PUBCHEM_IUPAC_NAME>
N-[2-[3-[2-[3-[2-[2-[(5R)-3-acetamido-4,5-dihydroxy-6-(hydroxymethyl)oxan-2-yl]oxyethoxy]ethoxy]-2-methylpropoxy]ethoxy]propyl]-4,5-dihydroxy-6-(hydroxymethyl)oxan-3-yl]acetamide

> <PUBCHEM_IUPAC_SYSTEMATIC_NAME>
N-[2-[3-[2-[3-[2-[2-[(5R)-3-acetamido-6-(hydroxymethyl)-4,5-bis(oxidanyl)oxan-2-yl]oxyethoxy]ethoxy]-2-methyl-propoxy]ethoxy]propyl]-6-(hydroxymethyl)-4,5-bis(oxidanyl)oxan-3-yl]ethanamide

> <PUBCHEM_IUPAC_TRADITIONAL_NAME>
N-[2-[3-[2-[3-[2-[2-[(5R)-3-acetamido-4,5-dihydroxy-6-methylol-tetrahydropyran-2-yl]oxyethoxy]ethoxy]-2-methyl-propoxy]ethoxy]propyl]-4,5-dihydroxy-6-methylol-tetrahydropyran-3-yl]acetamide

> <PUBCHEM_IUPAC_INCHI>
InChI=1S/C29H54N2O15/c1-17(15-42-9-7-40-6-4-5-20-23(30-18(2)34)27(38)25(36)21(13-32)45-20)16-43-10-8-41-11-12-44-29-24(31-19(3)35)28(39)26(37)22(14-33)46-29/h17,20-29,32-33,36-39H,4-16H2,1-3H3,(H,30,34)(H,31,35)/t17?,20?,21?,22?,23?,24?,25?,26-,27?,28?,29?/m0/s1

> <PUBCHEM_IUPAC_INCHIKEY>
TYRSERDXTADRDI-VUPNHBBVSA-N

> <PUBCHEM_XLOGP3_AA>
-3.4

> <PUBCHEM_EXACT_MASS>
670.35241902

> <PUBCHEM_MOLECULAR_FORMULA>
C29H54N2O15

> <PUBCHEM_MOLECULAR_WEIGHT>
670.7

> <PUBCHEM_OPENEYE_CAN_SMILES>
CC(COCCOCCCC1C(C(C(C(O1)CO)O)O)NC(=O)C)COCCOCCOC2C(C(C(C(O2)CO)O)O)NC(=O)C

> <PUBCHEM_OPENEYE_ISO_SMILES>
CC(COCCOCCCC1C(C(C(C(O1)CO)O)O)NC(=O)C)COCCOCCOC2C(C([C@H](C(O2)CO)O)O)NC(=O)C

> <PUBCHEM_CACTVS_TPSA>
244

> <PUBCHEM_MONOISOTOPIC_WEIGHT>
670.35241902

> <PUBCHEM_TOTAL_CHARGE>
0

> <PUBCHEM_HEAVY_ATOM_COUNT>
46

> <PUBCHEM_ATOM_DEF_STEREO_COUNT>
1

> <PUBCHEM_ATOM_UDEF_STEREO_COUNT>
10

> <PUBCHEM_BOND_DEF_STEREO_COUNT>
0

> <PUBCHEM_BOND_UDEF_STEREO_COUNT>
0

> <PUBCHEM_ISOTOPIC_ATOM_COUNT>
0

> <PUBCHEM_COMPONENT_COUNT>
1

> <PUBCHEM_CACTVS_TAUTO_COUNT>
-1

> <PUBCHEM_COORDINATE_TYPE>
1
5
255

> <PUBCHEM_BONDANNOTATIONS>
18  16  3
26  17  3
19  23  3
20  2  3
22  24  3
29  33  3
21  3  3
41  46  3
30  6  3
27  7  3
28  8  5

$$$$
