 
  -OEChem-10192104032D

 62 61  0     1  0  0  0  0  0999 V2000
    5.4641   -1.8971    0.0000 O   0  0  0  0  0  0  0  0  0  0  0  0
    3.7320   -0.8971    0.0000 O   0  0  0  0  0  0  0  0  0  0  0  0
    6.3301    0.6029    0.0000 O   0  0  0  0  0  0  0  0  0  0  0  0
    5.4641    1.1029    0.0000 O   0  0  0  0  0  0  0  0  0  0  0  0
    8.0622   -0.3971    0.0000 O   0  0  0  0  0  0  0  0  0  0  0  0
    7.1962   -1.8971    0.0000 O   0  0  0  0  0  0  0  0  0  0  0  0
    3.7320    2.1029    0.0000 O   0  0  0  0  0  0  0  0  0  0  0  0
    3.7320   -1.8971    0.0000 O   0  0  0  0  0  0  0  0  0  0  0  0
    2.8660    0.6029    0.0000 O   0  0  0  0  0  0  0  0  0  0  0  0
    8.0622    0.6029    0.0000 O   0  0  0  0  0  0  0  0  0  0  0  0
    4.5981    2.6029    0.0000 O   0  0  0  0  0  0  0  0  0  0  0  0
    9.5711   -1.6631    0.0000 O   0  0  0  0  0  0  0  0  0  0  0  0
    8.5230   -3.0105    0.0000 O   0  0  0  0  0  0  0  0  0  0  0  0
    2.0000    2.1029    0.0000 O   0  0  0  0  0  0  0  0  0  0  0  0
    5.4641   -0.8971    0.0000 C   0  0  1  0  0  0  0  0  0  0  0  0
    4.5981   -0.3971    0.0000 C   0  0  1  0  0  0  0  0  0  0  0  0
    6.3301   -0.3971    0.0000 C   0  0  2  0  0  0  0  0  0  0  0  0
    4.5981    0.6029    0.0000 C   0  0  1  0  0  0  0  0  0  0  0  0
    7.1962   -0.8971    0.0000 C   0  0  0  0  0  0  0  0  0  0  0  0
    3.7320    1.1029    0.0000 C   0  0  0  0  0  0  0  0  0  0  0  0
    4.5981   -2.3971    0.0000 C   0  0  0  0  0  0  0  0  0  0  0  0
    2.8660   -0.3971    0.0000 C   0  0  0  0  0  0  0  0  0  0  0  0
    7.1962    1.1029    0.0000 C   0  0  0  0  0  0  0  0  0  0  0  0
    5.4641    2.1029    0.0000 C   0  0  0  0  0  0  0  0  0  0  0  0
    8.9282   -0.8971    0.0000 C   0  0  0  0  0  0  0  0  0  0  0  0
    7.5382   -2.8368    0.0000 C   0  0  0  0  0  0  0  0  0  0  0  0
    4.5981   -3.3971    0.0000 C   0  0  0  0  0  0  0  0  0  0  0  0
    2.0000   -0.8971    0.0000 C   0  0  0  0  0  0  0  0  0  0  0  0
    2.8660    2.6029    0.0000 C   0  0  0  0  0  0  0  0  0  0  0  0
    7.1962    2.1029    0.0000 C   0  0  0  0  0  0  0  0  0  0  0  0
    6.3301    2.6029    0.0000 C   0  0  0  0  0  0  0  0  0  0  0  0
    9.7942   -0.3971    0.0000 C   0  0  0  0  0  0  0  0  0  0  0  0
    6.8954   -3.6029    0.0000 C   0  0  0  0  0  0  0  0  0  0  0  0
    2.8660    3.6029    0.0000 C   0  0  0  0  0  0  0  0  0  0  0  0
    6.0010   -1.2071    0.0000 H   0  0  0  0  0  0  0  0  0  0  0  0
    4.5981   -1.0171    0.0000 H   0  0  0  0  0  0  0  0  0  0  0  0
    6.8671   -0.0871    0.0000 H   0  0  0  0  0  0  0  0  0  0  0  0
    4.5981    1.2229    0.0000 H   0  0  0  0  0  0  0  0  0  0  0  0
    6.6592   -1.2071    0.0000 H   0  0  0  0  0  0  0  0  0  0  0  0
    3.1215    1.2105    0.0000 H   0  0  0  0  0  0  0  0  0  0  0  0
    3.5200    0.5203    0.0000 H   0  0  0  0  0  0  0  0  0  0  0  0
    3.9781   -3.3971    0.0000 H   0  0  0  0  0  0  0  0  0  0  0  0
    4.5981   -4.0171    0.0000 H   0  0  0  0  0  0  0  0  0  0  0  0
    5.2181   -3.3971    0.0000 H   0  0  0  0  0  0  0  0  0  0  0  0
    1.6900   -0.3602    0.0000 H   0  0  0  0  0  0  0  0  0  0  0  0
    1.4631   -1.2071    0.0000 H   0  0  0  0  0  0  0  0  0  0  0  0
    2.3100   -1.4341    0.0000 H   0  0  0  0  0  0  0  0  0  0  0  0
    7.8162    2.1029    0.0000 H   0  0  0  0  0  0  0  0  0  0  0  0
    7.1962    2.7229    0.0000 H   0  0  0  0  0  0  0  0  0  0  0  0
    6.5762    2.1029    0.0000 H   0  0  0  0  0  0  0  0  0  0  0  0
    6.6401    2.0659    0.0000 H   0  0  0  0  0  0  0  0  0  0  0  0
    6.8671    2.9129    0.0000 H   0  0  0  0  0  0  0  0  0  0  0  0
    6.0201    3.1398    0.0000 H   0  0  0  0  0  0  0  0  0  0  0  0
   10.1042   -0.9341    0.0000 H   0  0  0  0  0  0  0  0  0  0  0  0
   10.3312   -0.0871    0.0000 H   0  0  0  0  0  0  0  0  0  0  0  0
    9.4842    0.1398    0.0000 H   0  0  0  0  0  0  0  0  0  0  0  0
    6.4204   -3.2043    0.0000 H   0  0  0  0  0  0  0  0  0  0  0  0
    6.4969   -4.0778    0.0000 H   0  0  0  0  0  0  0  0  0  0  0  0
    7.3703   -4.0014    0.0000 H   0  0  0  0  0  0  0  0  0  0  0  0
    3.4860    3.6029    0.0000 H   0  0  0  0  0  0  0  0  0  0  0  0
    2.8660    4.2229    0.0000 H   0  0  0  0  0  0  0  0  0  0  0  0
    2.2460    3.6029    0.0000 H   0  0  0  0  0  0  0  0  0  0  0  0
 15  1  1  1  0  0  0
  1 21  1  0  0  0  0
 16  2  1  6  0  0  0
  2 22  1  0  0  0  0
 17  3  1  1  0  0  0
  3 23  1  0  0  0  0
 18  4  1  1  0  0  0
  4 24  1  0  0  0  0
  5 19  1  0  0  0  0
  5 25  1  0  0  0  0
  6 19  1  0  0  0  0
  6 26  1  0  0  0  0
  7 20  1  0  0  0  0
  7 29  1  0  0  0  0
  8 21  2  0  0  0  0
  9 22  2  0  0  0  0
 10 23  2  0  0  0  0
 11 24  2  0  0  0  0
 12 25  2  0  0  0  0
 13 26  2  0  0  0  0
 14 29  2  0  0  0  0
 15 16  1  0  0  0  0
 15 17  1  0  0  0  0
 15 35  1  0  0  0  0
 16 18  1  0  0  0  0
 16 36  1  0  0  0  0
 17 19  1  0  0  0  0
 17 37  1  0  0  0  0
 18 20  1  0  0  0  0
 18 38  1  0  0  0  0
 19 39  1  0  0  0  0
 20 40  1  0  0  0  0
 20 41  1  0  0  0  0
 21 27  1  0  0  0  0
 22 28  1  0  0  0  0
 23 30  1  0  0  0  0
 24 31  1  0  0  0  0
 25 32  1  0  0  0  0
 26 33  1  0  0  0  0
 27 42  1  0  0  0  0
 27 43  1  0  0  0  0
 27 44  1  0  0  0  0
 28 45  1  0  0  0  0
 28 46  1  0  0  0  0
 28 47  1  0  0  0  0
 29 34  1  0  0  0  0
 30 48  1  0  0  0  0
 30 49  1  0  0  0  0
 30 50  1  0  0  0  0
 31 51  1  0  0  0  0
 31 52  1  0  0  0  0
 31 53  1  0  0  0  0
 32 54  1  0  0  0  0
 32 55  1  0  0  0  0
 32 56  1  0  0  0  0
 33 57  1  0  0  0  0
 33 58  1  0  0  0  0
 33 59  1  0  0  0  0
 34 60  1  0  0  0  0
 34 61  1  0  0  0  0
 34 62  1  0  0  0  0
M  END
> <PUBCHEM_COMPOUND_CID>
2728799

> <PUBCHEM_COMPOUND_CANONICALIZED>
1

> <PUBCHEM_CACTVS_COMPLEXITY>
772

> <PUBCHEM_CACTVS_HBOND_ACCEPTOR>
14

> <PUBCHEM_CACTVS_HBOND_DONOR>
0

> <PUBCHEM_CACTVS_ROTATABLE_BOND>
19

> <PUBCHEM_CACTVS_SUBSKEYS>
AAADceB4PAAAAAAAAAAAAAAAAAAAAAAAAAAAAAAAAAAAAAAAAAAAGgAAAAAACBSwgAMCCAAABAAIAACQCAAAAAAAAAAAAAAAAAARAAIAAAAiAAAFAAAGAAHAYAwAAAAAAAAAAAAAAAAAAAAAAAAAAAAAAA==

> <PUBCHEM_IUPAC_OPENEYE_NAME>
[(2R,3R,4S,5R)-2,3,4,5,6,6-hexaacetoxyhexyl] acetate

> <PUBCHEM_IUPAC_CAS_NAME>
acetic acid [(2R,3R,4S,5R)-2,3,4,5,6,6-hexaacetyloxyhexyl] ester

> <PUBCHEM_IUPAC_NAME_MARKUP>
[(2<I>R</I>,3<I>R</I>,4<I>S</I>,5<I>R</I>)-2,3,4,5,6,6-hexaacetyloxyhexyl] acetate

> <PUBCHEM_IUPAC_NAME>
[(2R,3R,4S,5R)-2,3,4,5,6,6-hexaacetyloxyhexyl] acetate

> <PUBCHEM_IUPAC_SYSTEMATIC_NAME>
[(2R,3R,4S,5R)-2,3,4,5,6,6-hexaacetyloxyhexyl] ethanoate

> <PUBCHEM_IUPAC_TRADITIONAL_NAME>
acetic acid [(2R,3R,4S,5R)-2,3,4,5,6,6-hexaacetoxyhexyl] ester

> <PUBCHEM_IUPAC_INCHI>
InChI=1S/C20H28O14/c1-9(21)28-8-16(29-10(2)22)17(30-11(3)23)18(31-12(4)24)19(32-13(5)25)20(33-14(6)26)34-15(7)27/h16-20H,8H2,1-7H3/t16-,17-,18+,19-/m1/s1

> <PUBCHEM_IUPAC_INCHIKEY>
VDDHMTHDOZEEHK-AKHDSKFASA-N

> <PUBCHEM_XLOGP3_AA>
-0.1

> <PUBCHEM_EXACT_MASS>
492.14790556

> <PUBCHEM_MOLECULAR_FORMULA>
C20H28O14

> <PUBCHEM_MOLECULAR_WEIGHT>
492.4

> <PUBCHEM_OPENEYE_CAN_SMILES>
CC(=O)OCC(C(C(C(C(OC(=O)C)OC(=O)C)OC(=O)C)OC(=O)C)OC(=O)C)OC(=O)C

> <PUBCHEM_OPENEYE_ISO_SMILES>
CC(=O)OC[C@H]([C@H]([C@@H]([C@H](C(OC(=O)C)OC(=O)C)OC(=O)C)OC(=O)C)OC(=O)C)OC(=O)C

> <PUBCHEM_CACTVS_TPSA>
184

> <PUBCHEM_MONOISOTOPIC_WEIGHT>
492.14790556

> <PUBCHEM_TOTAL_CHARGE>
0

> <PUBCHEM_HEAVY_ATOM_COUNT>
34

> <PUBCHEM_ATOM_DEF_STEREO_COUNT>
4

> <PUBCHEM_ATOM_UDEF_STEREO_COUNT>
0

> <PUBCHEM_BOND_DEF_STEREO_COUNT>
0

> <PUBCHEM_BOND_UDEF_STEREO_COUNT>
0

> <PUBCHEM_ISOTOPIC_ATOM_COUNT>
0

> <PUBCHEM_COMPONENT_COUNT>
1

> <PUBCHEM_CACTVS_TAUTO_COUNT>
-1

> <PUBCHEM_COORDINATE_TYPE>
1
5
255

> <PUBCHEM_BONDANNOTATIONS>
15  1  5
16  2  6
17  3  5
18  4  5

$$$$
