 
  -OEChem-10192103482D

 15 15  0     0  0  0  0  0  0999 V2000
    3.7601    1.0189    0.0000 S   0  0  0  0  0  0  0  0  0  0  0  0
    4.2601   -1.5199    0.0000 O   0  0  0  0  0  0  0  0  0  0  0  0
    3.7601    2.0189    0.0000 O   0  0  0  0  0  0  0  0  0  0  0  0
    4.7601    1.0189    0.0000 O   0  0  0  0  0  0  0  0  0  0  0  0
    2.7601    1.0189    0.0000 O   0  0  0  0  0  0  0  0  0  0  0  0
    2.6723   -2.3289    0.0000 O   0  5  0  0  0  0  0  0  0  0  0  0
    3.2601   -1.5199    0.0000 N   0  3  0  0  0  0  0  0  0  0  0  0
    4.5691   -0.5689    0.0000 N   0  0  0  0  0  0  0  0  0  0  0  0
    3.7601    0.0189    0.0000 C   0  0  0  0  0  0  0  0  0  0  0  0
    2.9511   -0.5689    0.0000 C   0  0  0  0  0  0  0  0  0  0  0  0
    2.0000   -0.2598    0.0000 C   0  0  0  0  0  0  0  0  0  0  0  0
    2.1916    0.3298    0.0000 H   0  0  0  0  0  0  0  0  0  0  0  0
    1.4103   -0.0682    0.0000 H   0  0  0  0  0  0  0  0  0  0  0  0
    1.8084   -0.8495    0.0000 H   0  0  0  0  0  0  0  0  0  0  0  0
    4.2970    2.3289    0.0000 H   0  0  0  0  0  0  0  0  0  0  0  0
  1  3  1  0  0  0  0
  1  4  2  0  0  0  0
  1  5  2  0  0  0  0
  1  9  1  0  0  0  0
  2  7  1  0  0  0  0
  2  8  1  0  0  0  0
  3 15  1  0  0  0  0
  6  7  1  0  0  0  0
  7 10  2  0  0  0  0
  8  9  2  0  0  0  0
  9 10  1  0  0  0  0
 10 11  1  0  0  0  0
 11 12  1  0  0  0  0
 11 13  1  0  0  0  0
 11 14  1  0  0  0  0
M  CHG  2   6  -1   7   1
M  END
> <PUBCHEM_COMPOUND_CID>
44542154

> <PUBCHEM_COMPOUND_CANONICALIZED>
1

> <PUBCHEM_CACTVS_COMPLEXITY>
233

> <PUBCHEM_CACTVS_HBOND_ACCEPTOR>
6

> <PUBCHEM_CACTVS_HBOND_DONOR>
1

> <PUBCHEM_CACTVS_ROTATABLE_BOND>
1

> <PUBCHEM_CACTVS_SUBSKEYS>
AAADcYBDOABAAAAAAAAAAAAAAAAAAWAAAAAAAAAAAAAAAAABgAAAHAQECAAACAiBVgACgRAQYIKhAQRgQ3BIAEQAEAAgEBQwUAIAQAAAAAAAAAAAAIAAAAAAAAAAAAAAAAAAAAAAAAAAAAAAAAAAAAAAAA==

> <PUBCHEM_IUPAC_OPENEYE_NAME>
4-methyl-5-oxido-1,2,5-oxadiazol-5-ium-3-sulfonic acid

> <PUBCHEM_IUPAC_CAS_NAME>
4-methyl-5-oxido-1,2,5-oxadiazol-5-ium-3-sulfonic acid

> <PUBCHEM_IUPAC_NAME_MARKUP>
4-methyl-5-oxido-1,2,5-oxadiazol-5-ium-3-sulfonic acid

> <PUBCHEM_IUPAC_NAME>
4-methyl-5-oxido-1,2,5-oxadiazol-5-ium-3-sulfonic acid

> <PUBCHEM_IUPAC_SYSTEMATIC_NAME>
4-methyl-5-oxidanidyl-1,2,5-oxadiazol-5-ium-3-sulfonic acid

> <PUBCHEM_IUPAC_TRADITIONAL_NAME>
4-methyl-5-oxido-furazan-5-ium-3-sulfonic acid

> <PUBCHEM_IUPAC_INCHI>
InChI=1S/C3H4N2O5S/c1-2-3(11(7,8)9)4-10-5(2)6/h1H3,(H,7,8,9)

> <PUBCHEM_IUPAC_INCHIKEY>
GYCDPKHVNUSSCM-UHFFFAOYSA-N

> <PUBCHEM_XLOGP3>
-0.2

> <PUBCHEM_EXACT_MASS>
179.98409241

> <PUBCHEM_MOLECULAR_FORMULA>
C3H4N2O5S

> <PUBCHEM_MOLECULAR_WEIGHT>
180.14

> <PUBCHEM_OPENEYE_CAN_SMILES>
CC1=[N+](ON=C1S(=O)(=O)O)[O-]

> <PUBCHEM_OPENEYE_ISO_SMILES>
CC1=[N+](ON=C1S(=O)(=O)O)[O-]

> <PUBCHEM_CACTVS_TPSA>
114

> <PUBCHEM_MONOISOTOPIC_WEIGHT>
179.98409241

> <PUBCHEM_TOTAL_CHARGE>
0

> <PUBCHEM_HEAVY_ATOM_COUNT>
11

> <PUBCHEM_ATOM_DEF_STEREO_COUNT>
0

> <PUBCHEM_ATOM_UDEF_STEREO_COUNT>
0

> <PUBCHEM_BOND_DEF_STEREO_COUNT>
0

> <PUBCHEM_BOND_UDEF_STEREO_COUNT>
0

> <PUBCHEM_ISOTOPIC_ATOM_COUNT>
0

> <PUBCHEM_COMPONENT_COUNT>
1

> <PUBCHEM_CACTVS_TAUTO_COUNT>
-1

> <PUBCHEM_COORDINATE_TYPE>
1
5
255

> <PUBCHEM_BONDANNOTATIONS>
2  7  8
2  8  8
7  10  8
8  9  8
9  10  8

$$$$
