 
  -OEChem-10192104282D

 61 63  0     1  0  0  0  0  0999 V2000
    6.0531    0.3487    0.0000 O   0  0  0  0  0  0  0  0  0  0  0  0
    8.9887    0.9674    0.0000 O   0  0  0  0  0  0  0  0  0  0  0  0
    7.6530    2.4560    0.0000 O   0  0  0  0  0  0  0  0  0  0  0  0
    8.3673   -0.9336    0.0000 O   0  0  0  0  0  0  0  0  0  0  0  0
    4.7175    1.8373    0.0000 O   0  0  0  0  0  0  0  0  0  0  0  0
    8.6315    2.6622    0.0000 O   0  0  0  0  0  0  0  0  0  0  0  0
    6.0066    2.9941    0.0000 O   0  0  0  0  0  0  0  0  0  0  0  0
    9.6565    0.2231    0.0000 O   0  0  0  0  0  0  0  0  0  0  0  0
    2.8660   -1.1508    0.0000 O   0  0  0  0  0  0  0  0  0  0  0  0
    4.5981   -4.1508    0.0000 O   0  0  0  0  0  0  0  0  0  0  0  0
    4.3603    3.5322    0.0000 O   0  0  0  0  0  0  0  0  0  0  0  0
    6.4103   -1.3461    0.0000 N   0  0  0  0  0  0  0  0  0  0  0  0
    6.9939   -2.1508    0.0000 N   0  0  0  0  0  0  0  0  0  0  0  0
    6.4103   -2.9556    0.0000 N   0  0  0  0  0  0  0  0  0  0  0  0
    4.5981   -1.1508    0.0000 N   0  0  0  0  0  0  0  0  0  0  0  0
    3.7320   -2.6508    0.0000 N   0  0  0  0  0  0  0  0  0  0  0  0
    8.0102    0.7612    0.0000 C   0  0  1  0  0  0  0  0  0  0  0  0
    7.3423    1.5055    0.0000 C   0  0  1  0  0  0  0  0  0  0  0  0
    7.6995   -0.1893    0.0000 C   0  0  2  0  0  0  0  0  0  0  0  0
    6.3638    1.2993    0.0000 C   0  0  1  0  0  0  0  0  0  0  0  0
    6.7210   -0.3956    0.0000 C   0  0  1  0  0  0  0  0  0  0  0  0
    5.6960    2.0436    0.0000 C   0  0  0  0  0  0  0  0  0  0  0  0
    5.4641   -1.6508    0.0000 C   0  0  0  0  0  0  0  0  0  0  0  0
    5.4641   -2.6508    0.0000 C   0  0  0  0  0  0  0  0  0  0  0  0
    9.2993    1.9179    0.0000 C   0  0  0  0  0  0  0  0  0  0  0  0
    6.9851    3.2003    0.0000 C   0  0  0  0  0  0  0  0  0  0  0  0
    9.3458   -0.7274    0.0000 C   0  0  0  0  0  0  0  0  0  0  0  0
    4.5981   -3.1508    0.0000 C   0  0  0  0  0  0  0  0  0  0  0  0
   10.2778    2.1241    0.0000 C   0  0  0  0  0  0  0  0  0  0  0  0
    7.2958    4.1508    0.0000 C   0  0  0  0  0  0  0  0  0  0  0  0
   10.0137   -1.4717    0.0000 C   0  0  0  0  0  0  0  0  0  0  0  0
    3.7320   -1.6508    0.0000 C   0  0  0  0  0  0  0  0  0  0  0  0
    4.0496    2.5816    0.0000 C   0  0  0  0  0  0  0  0  0  0  0  0
    2.8660   -3.1508    0.0000 C   0  0  0  0  0  0  0  0  0  0  0  0
    3.0711    2.3754    0.0000 C   0  0  0  0  0  0  0  0  0  0  0  0
    2.0000   -1.6508    0.0000 C   0  0  0  0  0  0  0  0  0  0  0  0
    8.4242    0.2997    0.0000 H   0  0  0  0  0  0  0  0  0  0  0  0
    7.9490    1.6333    0.0000 H   0  0  0  0  0  0  0  0  0  0  0  0
    7.5069   -0.7787    0.0000 H   0  0  0  0  0  0  0  0  0  0  0  0
    5.7571    1.1714    0.0000 H   0  0  0  0  0  0  0  0  0  0  0  0
    6.1143   -0.5234    0.0000 H   0  0  0  0  0  0  0  0  0  0  0  0
    6.2223    2.3712    0.0000 H   0  0  0  0  0  0  0  0  0  0  0  0
    5.4647    2.6188    0.0000 H   0  0  0  0  0  0  0  0  0  0  0  0
   10.4057    1.5175    0.0000 H   0  0  0  0  0  0  0  0  0  0  0  0
   10.8845    2.2520    0.0000 H   0  0  0  0  0  0  0  0  0  0  0  0
   10.1500    2.7308    0.0000 H   0  0  0  0  0  0  0  0  0  0  0  0
    7.8851    3.9582    0.0000 H   0  0  0  0  0  0  0  0  0  0  0  0
    7.4884    4.7401    0.0000 H   0  0  0  0  0  0  0  0  0  0  0  0
    6.7065    4.3434    0.0000 H   0  0  0  0  0  0  0  0  0  0  0  0
    9.5522   -1.8858    0.0000 H   0  0  0  0  0  0  0  0  0  0  0  0
   10.4277   -1.9332    0.0000 H   0  0  0  0  0  0  0  0  0  0  0  0
   10.4751   -1.0577    0.0000 H   0  0  0  0  0  0  0  0  0  0  0  0
    2.5560   -2.6139    0.0000 H   0  0  0  0  0  0  0  0  0  0  0  0
    2.3291   -3.4608    0.0000 H   0  0  0  0  0  0  0  0  0  0  0  0
    3.1760   -3.6878    0.0000 H   0  0  0  0  0  0  0  0  0  0  0  0
    2.9432    2.9821    0.0000 H   0  0  0  0  0  0  0  0  0  0  0  0
    2.4644    2.2476    0.0000 H   0  0  0  0  0  0  0  0  0  0  0  0
    3.1990    1.7688    0.0000 H   0  0  0  0  0  0  0  0  0  0  0  0
    1.6900   -1.1139    0.0000 H   0  0  0  0  0  0  0  0  0  0  0  0
    1.4631   -1.9608    0.0000 H   0  0  0  0  0  0  0  0  0  0  0  0
    2.3100   -2.1878    0.0000 H   0  0  0  0  0  0  0  0  0  0  0  0
  1 20  1  0  0  0  0
  1 21  1  0  0  0  0
 17  2  1  6  0  0  0
  2 25  1  0  0  0  0
 18  3  1  1  0  0  0
  3 26  1  0  0  0  0
 19  4  1  1  0  0  0
  4 27  1  0  0  0  0
  5 22  1  0  0  0  0
  5 33  1  0  0  0  0
  6 25  2  0  0  0  0
  7 26  2  0  0  0  0
  8 27  2  0  0  0  0
  9 32  1  0  0  0  0
  9 36  1  0  0  0  0
 10 28  2  0  0  0  0
 11 33  2  0  0  0  0
 12 13  1  0  0  0  0
 21 12  1  6  0  0  0
 12 23  1  0  0  0  0
 13 14  2  0  0  0  0
 14 24  1  0  0  0  0
 15 23  1  0  0  0  0
 15 32  2  0  0  0  0
 16 28  1  0  0  0  0
 16 32  1  0  0  0  0
 16 34  1  0  0  0  0
 17 18  1  0  0  0  0
 17 19  1  0  0  0  0
 17 37  1  0  0  0  0
 18 20  1  0  0  0  0
 18 38  1  0  0  0  0
 19 21  1  0  0  0  0
 19 39  1  0  0  0  0
 20 22  1  6  0  0  0
 20 40  1  0  0  0  0
 21 41  1  0  0  0  0
 22 42  1  0  0  0  0
 22 43  1  0  0  0  0
 23 24  2  0  0  0  0
 24 28  1  0  0  0  0
 25 29  1  0  0  0  0
 26 30  1  0  0  0  0
 27 31  1  0  0  0  0
 29 44  1  0  0  0  0
 29 45  1  0  0  0  0
 29 46  1  0  0  0  0
 30 47  1  0  0  0  0
 30 48  1  0  0  0  0
 30 49  1  0  0  0  0
 31 50  1  0  0  0  0
 31 51  1  0  0  0  0
 31 52  1  0  0  0  0
 33 35  1  0  0  0  0
 34 53  1  0  0  0  0
 34 54  1  0  0  0  0
 34 55  1  0  0  0  0
 35 56  1  0  0  0  0
 35 57  1  0  0  0  0
 35 58  1  0  0  0  0
 36 59  1  0  0  0  0
 36 60  1  0  0  0  0
 36 61  1  0  0  0  0
M  END
> <PUBCHEM_COMPOUND_CID>
15160524

> <PUBCHEM_COMPOUND_CANONICALIZED>
1

> <PUBCHEM_CACTVS_COMPLEXITY>
943

> <PUBCHEM_CACTVS_HBOND_ACCEPTOR>
14

> <PUBCHEM_CACTVS_HBOND_DONOR>
0

> <PUBCHEM_CACTVS_ROTATABLE_BOND>
11

> <PUBCHEM_CACTVS_SUBSKEYS>
AAADceB7vAAAAAAAAAAAAAAAAAAAAWAAAAAkQAAAAAAAAEABgAAAHgAIAAAACBzhlgYDuBMIBACqAQfwfACABAcHkAAVUAGoVECDQApAyAAfAIgHAgLSAEHwcA4AAAAAAAAAAAAAAAAAAAAAAAAAAAAAAA==

> <PUBCHEM_IUPAC_OPENEYE_NAME>
[(2R,3R,4S,5R,6R)-3,4,5-triacetoxy-6-(5-methoxy-6-methyl-7-oxo-triazolo[4,5-d]pyrimidin-3-yl)tetrahydropyran-2-yl]methyl acetate

> <PUBCHEM_IUPAC_CAS_NAME>
acetic acid [(2R,3R,4S,5R,6R)-3,4,5-triacetyloxy-6-(5-methoxy-6-methyl-7-oxo-3-triazolo[4,5-d]pyrimidinyl)-2-oxanyl]methyl ester

> <PUBCHEM_IUPAC_NAME_MARKUP>
[(2<I>R</I>,3<I>R</I>,4<I>S</I>,5<I>R</I>,6<I>R</I>)-3,4,5-triacetyloxy-6-(5-methoxy-6-methyl-7-oxotriazolo[4,5-d]pyrimidin-3-yl)oxan-2-yl]methyl acetate

> <PUBCHEM_IUPAC_NAME>
[(2R,3R,4S,5R,6R)-3,4,5-triacetyloxy-6-(5-methoxy-6-methyl-7-oxotriazolo[4,5-d]pyrimidin-3-yl)oxan-2-yl]methyl acetate

> <PUBCHEM_IUPAC_SYSTEMATIC_NAME>
[(2R,3R,4S,5R,6R)-3,4,5-triacetyloxy-6-(5-methoxy-6-methyl-7-oxidanylidene-[1,2,3]triazolo[4,5-d]pyrimidin-3-yl)oxan-2-yl]methyl ethanoate

> <PUBCHEM_IUPAC_TRADITIONAL_NAME>
acetic acid [(2R,3R,4S,5R,6R)-3,4,5-triacetoxy-6-(7-keto-5-methoxy-6-methyl-triazolo[4,5-d]pyrimidin-3-yl)tetrahydropyran-2-yl]methyl ester

> <PUBCHEM_IUPAC_INCHI>
InChI=1S/C20H25N5O11/c1-8(26)32-7-12-14(33-9(2)27)15(34-10(3)28)16(35-11(4)29)19(36-12)25-17-13(22-23-25)18(30)24(5)20(21-17)31-6/h12,14-16,19H,7H2,1-6H3/t12-,14-,15+,16-,19-/m1/s1

> <PUBCHEM_IUPAC_INCHIKEY>
SUYNUAMTNCWSAF-IIRRGFMQSA-N

> <PUBCHEM_XLOGP3_AA>
-0.8

> <PUBCHEM_EXACT_MASS>
511.15505663

> <PUBCHEM_MOLECULAR_FORMULA>
C20H25N5O11

> <PUBCHEM_MOLECULAR_WEIGHT>
511.4

> <PUBCHEM_OPENEYE_CAN_SMILES>
CC(=O)OCC1C(C(C(C(O1)N2C3=C(C(=O)N(C(=N3)OC)C)N=N2)OC(=O)C)OC(=O)C)OC(=O)C

> <PUBCHEM_OPENEYE_ISO_SMILES>
CC(=O)OC[C@@H]1[C@H]([C@@H]([C@H]([C@@H](O1)N2C3=C(C(=O)N(C(=N3)OC)C)N=N2)OC(=O)C)OC(=O)C)OC(=O)C

> <PUBCHEM_CACTVS_TPSA>
187

> <PUBCHEM_MONOISOTOPIC_WEIGHT>
511.15505663

> <PUBCHEM_TOTAL_CHARGE>
0

> <PUBCHEM_HEAVY_ATOM_COUNT>
36

> <PUBCHEM_ATOM_DEF_STEREO_COUNT>
5

> <PUBCHEM_ATOM_UDEF_STEREO_COUNT>
0

> <PUBCHEM_BOND_DEF_STEREO_COUNT>
0

> <PUBCHEM_BOND_UDEF_STEREO_COUNT>
0

> <PUBCHEM_ISOTOPIC_ATOM_COUNT>
0

> <PUBCHEM_COMPONENT_COUNT>
1

> <PUBCHEM_CACTVS_TAUTO_COUNT>
-1

> <PUBCHEM_COORDINATE_TYPE>
1
5
255

> <PUBCHEM_BONDANNOTATIONS>
12  13  8
21  12  6
12  23  8
13  14  8
14  24  8
15  23  8
15  32  8
16  28  8
16  32  8
17  2  6
20  22  6
23  24  8
24  28  8
18  3  5
19  4  5

$$$$
