 
  -OEChem-10192103522D

 31 30  0     0  0  0  0  0  0999 V2000
    2.5369    0.5000    0.0000 O   0  0  0  0  0  0  0  0  0  0  0  0
    3.4030   -1.0000    0.0000 O   0  0  0  0  0  0  0  0  0  0  0  0
    3.4030    2.0000    0.0000 O   0  0  0  0  0  0  0  0  0  0  0  0
    5.1350   -1.0000    0.0000 O   0  0  0  0  0  0  0  0  0  0  0  0
    6.0010    0.5000    0.0000 C   0  0  0  0  0  0  0  0  0  0  0  0
    5.1350    1.0000    0.0000 C   0  0  0  0  0  0  0  0  0  0  0  0
    6.8671    1.0000    0.0000 C   0  0  0  0  0  0  0  0  0  0  0  0
    6.0010   -0.5000    0.0000 C   0  0  0  0  0  0  0  0  0  0  0  0
    4.2690    0.5000    0.0000 C   0  0  0  0  0  0  0  0  0  0  0  0
    7.7331    0.5000    0.0000 C   0  0  0  0  0  0  0  0  0  0  0  0
    6.8671   -1.0000    0.0000 C   0  0  0  0  0  0  0  0  0  0  0  0
    3.4030    1.0000    0.0000 C   0  0  0  0  0  0  0  0  0  0  0  0
    4.2690   -0.5000    0.0000 C   0  0  0  0  0  0  0  0  0  0  0  0
    8.5991    1.0000    0.0000 C   0  0  0  0  0  0  0  0  0  0  0  0
    6.8671   -2.0000    0.0000 C   0  0  0  0  0  0  0  0  0  0  0  0
    6.5380    0.1900    0.0000 H   0  0  0  0  0  0  0  0  0  0  0  0
    5.5335    1.4750    0.0000 H   0  0  0  0  0  0  0  0  0  0  0  0
    4.7365    1.4750    0.0000 H   0  0  0  0  0  0  0  0  0  0  0  0
    7.2656    1.4750    0.0000 H   0  0  0  0  0  0  0  0  0  0  0  0
    6.4685    1.4750    0.0000 H   0  0  0  0  0  0  0  0  0  0  0  0
    5.3905   -0.3923    0.0000 H   0  0  0  0  0  0  0  0  0  0  0  0
    5.7890   -1.0826    0.0000 H   0  0  0  0  0  0  0  0  0  0  0  0
    4.2690    1.1200    0.0000 H   0  0  0  0  0  0  0  0  0  0  0  0
    7.7331   -0.1200    0.0000 H   0  0  0  0  0  0  0  0  0  0  0  0
    7.4040   -0.6900    0.0000 H   0  0  0  0  0  0  0  0  0  0  0  0
    9.1360    0.6900    0.0000 H   0  0  0  0  0  0  0  0  0  0  0  0
    8.5991    1.6200    0.0000 H   0  0  0  0  0  0  0  0  0  0  0  0
    6.3301   -2.3100    0.0000 H   0  0  0  0  0  0  0  0  0  0  0  0
    7.4040   -2.3100    0.0000 H   0  0  0  0  0  0  0  0  0  0  0  0
    2.0000    0.8100    0.0000 H   0  0  0  0  0  0  0  0  0  0  0  0
    3.4030   -1.6200    0.0000 H   0  0  0  0  0  0  0  0  0  0  0  0
  1 12  1  0  0  0  0
  1 30  1  0  0  0  0
  2 13  1  0  0  0  0
  2 31  1  0  0  0  0
  3 12  2  0  0  0  0
  4 13  2  0  0  0  0
  5  6  1  0  0  0  0
  5  7  1  0  0  0  0
  5  8  1  0  0  0  0
  5 16  1  0  0  0  0
  6  9  1  0  0  0  0
  6 17  1  0  0  0  0
  6 18  1  0  0  0  0
  7 10  1  0  0  0  0
  7 19  1  0  0  0  0
  7 20  1  0  0  0  0
  8 11  1  0  0  0  0
  8 21  1  0  0  0  0
  8 22  1  0  0  0  0
  9 12  1  0  0  0  0
  9 13  1  0  0  0  0
  9 23  1  0  0  0  0
 10 14  2  0  0  0  0
 10 24  1  0  0  0  0
 11 15  2  0  0  0  0
 11 25  1  0  0  0  0
 14 26  1  0  0  0  0
 14 27  1  0  0  0  0
 15 28  1  0  0  0  0
 15 29  1  0  0  0  0
M  END
> <PUBCHEM_COMPOUND_CID>
59237692

> <PUBCHEM_COMPOUND_CANONICALIZED>
1

> <PUBCHEM_CACTVS_COMPLEXITY>
233

> <PUBCHEM_CACTVS_HBOND_ACCEPTOR>
4

> <PUBCHEM_CACTVS_HBOND_DONOR>
2

> <PUBCHEM_CACTVS_ROTATABLE_BOND>
8

> <PUBCHEM_CACTVS_SUBSKEYS>
AAADceBwOAAAAAAAAAAAAAAAAAAAAAAAAAAAAAAAAAAAAAAAAAAAGgAACAAADQCAgAAACAAAAgCIACDSCAAAAAAgAAAIAAEAAAgAABYIAQAAQAAFoAAAAAGISAAOAAAAAAAAAAAAAAAAAAAAAAAAAAAAAA==

> <PUBCHEM_IUPAC_OPENEYE_NAME>
2-(2-allylpent-4-enyl)propanedioic acid

> <PUBCHEM_IUPAC_CAS_NAME>
2-(2-prop-2-enylpent-4-enyl)propanedioic acid

> <PUBCHEM_IUPAC_NAME_MARKUP>
2-(2-prop-2-enylpent-4-enyl)propanedioic acid

> <PUBCHEM_IUPAC_NAME>
2-(2-prop-2-enylpent-4-enyl)propanedioic acid

> <PUBCHEM_IUPAC_SYSTEMATIC_NAME>
2-(2-prop-2-enylpent-4-enyl)propanedioic acid

> <PUBCHEM_IUPAC_TRADITIONAL_NAME>
2-(2-allylpent-4-enyl)malonic acid

> <PUBCHEM_IUPAC_INCHI>
InChI=1S/C11H16O4/c1-3-5-8(6-4-2)7-9(10(12)13)11(14)15/h3-4,8-9H,1-2,5-7H2,(H,12,13)(H,14,15)

> <PUBCHEM_IUPAC_INCHIKEY>
DHQHBXCZFQNHSA-UHFFFAOYSA-N

> <PUBCHEM_XLOGP3_AA>
2.3

> <PUBCHEM_EXACT_MASS>
212.10485899

> <PUBCHEM_MOLECULAR_FORMULA>
C11H16O4

> <PUBCHEM_MOLECULAR_WEIGHT>
212.24

> <PUBCHEM_OPENEYE_CAN_SMILES>
C=CCC(CC=C)CC(C(=O)O)C(=O)O

> <PUBCHEM_OPENEYE_ISO_SMILES>
C=CCC(CC=C)CC(C(=O)O)C(=O)O

> <PUBCHEM_CACTVS_TPSA>
74.6

> <PUBCHEM_MONOISOTOPIC_WEIGHT>
212.10485899

> <PUBCHEM_TOTAL_CHARGE>
0

> <PUBCHEM_HEAVY_ATOM_COUNT>
15

> <PUBCHEM_ATOM_DEF_STEREO_COUNT>
0

> <PUBCHEM_ATOM_UDEF_STEREO_COUNT>
0

> <PUBCHEM_BOND_DEF_STEREO_COUNT>
0

> <PUBCHEM_BOND_UDEF_STEREO_COUNT>
0

> <PUBCHEM_ISOTOPIC_ATOM_COUNT>
0

> <PUBCHEM_COMPONENT_COUNT>
1

> <PUBCHEM_CACTVS_TAUTO_COUNT>
-1

> <PUBCHEM_COORDINATE_TYPE>
1
5
255

$$$$
