 
  -OEChem-10192103392D

 34 34  0     0  0  0  0  0  0999 V2000
    2.0000   -2.6651    0.0000 S   0  0  0  0  0  0  0  0  0  0  0  0
    3.0000   -1.6651    0.0000 P   0  0  0  0  0  0  0  0  0  0  0  0
    4.0000   -1.6651    0.0000 O   0  0  0  0  0  0  0  0  0  0  0  0
    2.0000   -1.6651    0.0000 O   0  0  0  0  0  0  0  0  0  0  0  0
    3.0000   -2.6651    0.0000 O   0  0  0  0  0  0  0  0  0  0  0  0
    3.0000   -0.6651    0.0000 O   0  0  0  0  0  0  0  0  0  0  0  0
    7.5000    0.9330    0.0000 C   0  0  0  0  0  0  0  0  0  0  0  0
    7.0000    0.0670    0.0000 C   0  0  0  0  0  0  0  0  0  0  0  0
    8.5000    0.9330    0.0000 C   0  0  0  0  0  0  0  0  0  0  0  0
    6.0000    0.0670    0.0000 C   0  0  0  0  0  0  0  0  0  0  0  0
    9.0000    1.7990    0.0000 C   0  0  0  0  0  0  0  0  0  0  0  0
    5.5000   -0.7990    0.0000 C   0  0  0  0  0  0  0  0  0  0  0  0
   10.0000    1.7990    0.0000 C   0  0  0  0  0  0  0  0  0  0  0  0
    4.5000   -0.7990    0.0000 C   0  0  0  0  0  0  0  0  0  0  0  0
   10.5000    2.6651    0.0000 C   0  0  0  0  0  0  0  0  0  0  0  0
    7.6077    1.5436    0.0000 H   0  0  0  0  0  0  0  0  0  0  0  0
    6.9174    1.1451    0.0000 H   0  0  0  0  0  0  0  0  0  0  0  0
    6.8923   -0.5436    0.0000 H   0  0  0  0  0  0  0  0  0  0  0  0
    7.5826   -0.1451    0.0000 H   0  0  0  0  0  0  0  0  0  0  0  0
    8.3923    0.3224    0.0000 H   0  0  0  0  0  0  0  0  0  0  0  0
    9.0826    0.7210    0.0000 H   0  0  0  0  0  0  0  0  0  0  0  0
    6.1077    0.6776    0.0000 H   0  0  0  0  0  0  0  0  0  0  0  0
    5.4174    0.2790    0.0000 H   0  0  0  0  0  0  0  0  0  0  0  0
    9.1077    2.4096    0.0000 H   0  0  0  0  0  0  0  0  0  0  0  0
    8.4174    2.0111    0.0000 H   0  0  0  0  0  0  0  0  0  0  0  0
    5.3923   -1.4096    0.0000 H   0  0  0  0  0  0  0  0  0  0  0  0
    6.0826   -1.0111    0.0000 H   0  0  0  0  0  0  0  0  0  0  0  0
    9.8923    1.1885    0.0000 H   0  0  0  0  0  0  0  0  0  0  0  0
   10.5826    1.5870    0.0000 H   0  0  0  0  0  0  0  0  0  0  0  0
    4.6077   -0.1885    0.0000 H   0  0  0  0  0  0  0  0  0  0  0  0
    3.9174   -0.5870    0.0000 H   0  0  0  0  0  0  0  0  0  0  0  0
   11.0369    2.3551    0.0000 H   0  0  0  0  0  0  0  0  0  0  0  0
   10.8100    3.2020    0.0000 H   0  0  0  0  0  0  0  0  0  0  0  0
    9.9631    2.9751    0.0000 H   0  0  0  0  0  0  0  0  0  0  0  0
  1  4  1  0  0  0  0
  1  5  1  0  0  0  0
  2  3  1  0  0  0  0
  2  4  1  0  0  0  0
  2  5  1  0  0  0  0
  2  6  2  0  0  0  0
  3 14  1  0  0  0  0
  7  8  1  0  0  0  0
  7  9  1  0  0  0  0
  7 16  1  0  0  0  0
  7 17  1  0  0  0  0
  8 10  1  0  0  0  0
  8 18  1  0  0  0  0
  8 19  1  0  0  0  0
  9 11  1  0  0  0  0
  9 20  1  0  0  0  0
  9 21  1  0  0  0  0
 10 12  1  0  0  0  0
 10 22  1  0  0  0  0
 10 23  1  0  0  0  0
 11 13  1  0  0  0  0
 11 24  1  0  0  0  0
 11 25  1  0  0  0  0
 12 14  1  0  0  0  0
 12 26  1  0  0  0  0
 12 27  1  0  0  0  0
 13 15  1  0  0  0  0
 13 28  1  0  0  0  0
 13 29  1  0  0  0  0
 14 30  1  0  0  0  0
 14 31  1  0  0  0  0
 15 32  1  0  0  0  0
 15 33  1  0  0  0  0
 15 34  1  0  0  0  0
M  END
> <PUBCHEM_COMPOUND_CID>
70636947

> <PUBCHEM_COMPOUND_CANONICALIZED>
1

> <PUBCHEM_CACTVS_COMPLEXITY>
204

> <PUBCHEM_CACTVS_HBOND_ACCEPTOR>
5

> <PUBCHEM_CACTVS_HBOND_DONOR>
0

> <PUBCHEM_CACTVS_ROTATABLE_BOND>
9

> <PUBCHEM_CACTVS_SUBSKEYS>
AAADceBwOAJAAAAAAAAAAAAAAABIAAAAAAAAAAAAAAAAAAAAAAAAGgAAACAACACggAICAAAAARAAQAAAAIAAAAAAAAAAAAAAAAAAAAIAAAAAAAAEAAAAAAGAwKAAAAAAAAAAAAAAAAAAAAAAAAAAAAAAAA==

> <PUBCHEM_IUPAC_OPENEYE_NAME>
4-nonoxy-1,3,2,4lambda5-dioxathiaphosphetane 4-oxide

> <PUBCHEM_IUPAC_CAS_NAME>
4-nonoxy-1,3,2,4lambda5-dioxathiaphosphetane 4-oxide

> <PUBCHEM_IUPAC_NAME_MARKUP>
4-nonoxy-1,3,2,4&lambda;<SUP>5</SUP>-dioxathiaphosphetane 4-oxide

> <PUBCHEM_IUPAC_NAME>
4-nonoxy-1,3,2,4lambda5-dioxathiaphosphetane 4-oxide

> <PUBCHEM_IUPAC_SYSTEMATIC_NAME>
4-nonoxy-1,3,2,4lambda5-dioxathiaphosphetane 4-oxide

> <PUBCHEM_IUPAC_TRADITIONAL_NAME>
4-nonoxy-1,3,2,4lambda5-dioxathiaphosphetane 4-oxide

> <PUBCHEM_IUPAC_INCHI>
InChI=1S/C9H19O4PS/c1-2-3-4-5-6-7-8-9-11-14(10)12-15-13-14/h2-9H2,1H3

> <PUBCHEM_IUPAC_INCHIKEY>
KDMAYUTUVJTGPM-UHFFFAOYSA-N

> <PUBCHEM_XLOGP3_AA>
3.9

> <PUBCHEM_EXACT_MASS>
254.07416725

> <PUBCHEM_MOLECULAR_FORMULA>
C9H19O4PS

> <PUBCHEM_MOLECULAR_WEIGHT>
254.29

> <PUBCHEM_OPENEYE_CAN_SMILES>
CCCCCCCCCOP1(=O)OSO1

> <PUBCHEM_OPENEYE_ISO_SMILES>
CCCCCCCCCOP1(=O)OSO1

> <PUBCHEM_CACTVS_TPSA>
70.1

> <PUBCHEM_MONOISOTOPIC_WEIGHT>
254.07416725

> <PUBCHEM_TOTAL_CHARGE>
0

> <PUBCHEM_HEAVY_ATOM_COUNT>
15

> <PUBCHEM_ATOM_DEF_STEREO_COUNT>
0

> <PUBCHEM_ATOM_UDEF_STEREO_COUNT>
0

> <PUBCHEM_BOND_DEF_STEREO_COUNT>
0

> <PUBCHEM_BOND_UDEF_STEREO_COUNT>
0

> <PUBCHEM_ISOTOPIC_ATOM_COUNT>
0

> <PUBCHEM_COMPONENT_COUNT>
1

> <PUBCHEM_CACTVS_TAUTO_COUNT>
-1

> <PUBCHEM_COORDINATE_TYPE>
1
5
255

$$$$
