 
  -OEChem-10192104122D

 42 41  0     0  0  0  0  0  0999 V2000
    2.5369    0.4400    0.0000 O   0  0  0  0  0  0  0  0  0  0  0  0
   13.7953   -1.0600    0.0000 O   0  0  0  0  0  0  0  0  0  0  0  0
    3.4030   -1.0600    0.0000 O   0  0  0  0  0  0  0  0  0  0  0  0
   14.6613    0.4400    0.0000 N   0  0  0  0  0  0  0  0  0  0  0  0
    8.5991   -0.0600    0.0000 C   0  0  0  0  0  0  0  0  0  0  0  0
    9.4651    0.4400    0.0000 C   0  0  0  0  0  0  0  0  0  0  0  0
    7.7331    0.4400    0.0000 C   0  0  0  0  0  0  0  0  0  0  0  0
   10.3312   -0.0600    0.0000 C   0  0  0  0  0  0  0  0  0  0  0  0
    6.8671   -0.0600    0.0000 C   0  0  0  0  0  0  0  0  0  0  0  0
   11.1972    0.4400    0.0000 C   0  0  0  0  0  0  0  0  0  0  0  0
    6.0010    0.4400    0.0000 C   0  0  0  0  0  0  0  0  0  0  0  0
   12.0632   -0.0600    0.0000 C   0  0  0  0  0  0  0  0  0  0  0  0
    5.1350   -0.0600    0.0000 C   0  0  0  0  0  0  0  0  0  0  0  0
   12.9292    0.4400    0.0000 C   0  0  0  0  0  0  0  0  0  0  0  0
    4.2690    0.4400    0.0000 C   0  0  0  0  0  0  0  0  0  0  0  0
   13.7953   -0.0600    0.0000 C   0  0  0  0  0  0  0  0  0  0  0  0
    3.4030   -0.0600    0.0000 C   0  0  0  0  0  0  0  0  0  0  0  0
    8.2006   -0.5349    0.0000 H   0  0  0  0  0  0  0  0  0  0  0  0
    8.9976   -0.5349    0.0000 H   0  0  0  0  0  0  0  0  0  0  0  0
    9.8637    0.9149    0.0000 H   0  0  0  0  0  0  0  0  0  0  0  0
    9.0666    0.9149    0.0000 H   0  0  0  0  0  0  0  0  0  0  0  0
    8.1316    0.9149    0.0000 H   0  0  0  0  0  0  0  0  0  0  0  0
    7.3346    0.9149    0.0000 H   0  0  0  0  0  0  0  0  0  0  0  0
    9.9326   -0.5349    0.0000 H   0  0  0  0  0  0  0  0  0  0  0  0
   10.7297   -0.5349    0.0000 H   0  0  0  0  0  0  0  0  0  0  0  0
    6.4685   -0.5349    0.0000 H   0  0  0  0  0  0  0  0  0  0  0  0
    7.2656   -0.5349    0.0000 H   0  0  0  0  0  0  0  0  0  0  0  0
   11.5957    0.9149    0.0000 H   0  0  0  0  0  0  0  0  0  0  0  0
   10.7987    0.9149    0.0000 H   0  0  0  0  0  0  0  0  0  0  0  0
    6.3996    0.9149    0.0000 H   0  0  0  0  0  0  0  0  0  0  0  0
    5.6025    0.9149    0.0000 H   0  0  0  0  0  0  0  0  0  0  0  0
   11.6647   -0.5349    0.0000 H   0  0  0  0  0  0  0  0  0  0  0  0
   12.4617   -0.5349    0.0000 H   0  0  0  0  0  0  0  0  0  0  0  0
    4.7365   -0.5349    0.0000 H   0  0  0  0  0  0  0  0  0  0  0  0
    5.5335   -0.5349    0.0000 H   0  0  0  0  0  0  0  0  0  0  0  0
   13.3278    0.9149    0.0000 H   0  0  0  0  0  0  0  0  0  0  0  0
   12.5307    0.9149    0.0000 H   0  0  0  0  0  0  0  0  0  0  0  0
    4.6675    0.9149    0.0000 H   0  0  0  0  0  0  0  0  0  0  0  0
    3.8705    0.9149    0.0000 H   0  0  0  0  0  0  0  0  0  0  0  0
   15.1982    0.1300    0.0000 H   0  0  0  0  0  0  0  0  0  0  0  0
   14.6613    1.0600    0.0000 H   0  0  0  0  0  0  0  0  0  0  0  0
    2.0000    0.1300    0.0000 H   0  0  0  0  0  0  0  0  0  0  0  0
  1 17  1  0  0  0  0
  1 42  1  0  0  0  0
  2 16  2  0  0  0  0
  3 17  2  0  0  0  0
  4 16  1  0  0  0  0
  4 40  1  0  0  0  0
  4 41  1  0  0  0  0
  5  6  1  0  0  0  0
  5  7  1  0  0  0  0
  5 18  1  0  0  0  0
  5 19  1  0  0  0  0
  6  8  1  0  0  0  0
  6 20  1  0  0  0  0
  6 21  1  0  0  0  0
  7  9  1  0  0  0  0
  7 22  1  0  0  0  0
  7 23  1  0  0  0  0
  8 10  1  0  0  0  0
  8 24  1  0  0  0  0
  8 25  1  0  0  0  0
  9 11  1  0  0  0  0
  9 26  1  0  0  0  0
  9 27  1  0  0  0  0
 10 12  1  0  0  0  0
 10 28  1  0  0  0  0
 10 29  1  0  0  0  0
 11 13  1  0  0  0  0
 11 30  1  0  0  0  0
 11 31  1  0  0  0  0
 12 14  1  0  0  0  0
 12 32  1  0  0  0  0
 12 33  1  0  0  0  0
 13 15  1  0  0  0  0
 13 34  1  0  0  0  0
 13 35  1  0  0  0  0
 14 16  1  0  0  0  0
 14 36  1  0  0  0  0
 14 37  1  0  0  0  0
 15 17  1  0  0  0  0
 15 38  1  0  0  0  0
 15 39  1  0  0  0  0
M  END
> <PUBCHEM_COMPOUND_CID>
85711399

> <PUBCHEM_COMPOUND_CANONICALIZED>
1

> <PUBCHEM_CACTVS_COMPLEXITY>
217

> <PUBCHEM_CACTVS_HBOND_ACCEPTOR>
3

> <PUBCHEM_CACTVS_HBOND_DONOR>
2

> <PUBCHEM_CACTVS_ROTATABLE_BOND>
12

> <PUBCHEM_CACTVS_SUBSKEYS>
AAADceByMAAAAAAAAAAAAAAAAAAAAAAAAAAAAAAAAAAAAAAAAAAAHgAQCAAACACBgAAACABAAgAIAAGQGAAAAAAAAAAAAAEAAAAAABIAgAAAQAAEEAAAAAGYyKCAAAAAAAAAAAAAAAAAAAAAAAAAAAAAAA==

> <PUBCHEM_IUPAC_OPENEYE_NAME>
13-amino-13-oxo-tridecanoic acid

> <PUBCHEM_IUPAC_CAS_NAME>
13-amino-13-oxotridecanoic acid

> <PUBCHEM_IUPAC_NAME_MARKUP>
13-amino-13-oxotridecanoic acid

> <PUBCHEM_IUPAC_NAME>
13-amino-13-oxotridecanoic acid

> <PUBCHEM_IUPAC_SYSTEMATIC_NAME>
13-azanyl-13-oxidanylidene-tridecanoic acid

> <PUBCHEM_IUPAC_TRADITIONAL_NAME>
13-amino-13-keto-tridecanoic acid

> <PUBCHEM_IUPAC_INCHI>
InChI=1S/C13H25NO3/c14-12(15)10-8-6-4-2-1-3-5-7-9-11-13(16)17/h1-11H2,(H2,14,15)(H,16,17)

> <PUBCHEM_IUPAC_INCHIKEY>
FHRQTSVMKLZYME-UHFFFAOYSA-N

> <PUBCHEM_XLOGP3>
3.1

> <PUBCHEM_EXACT_MASS>
243.18344366

> <PUBCHEM_MOLECULAR_FORMULA>
C13H25NO3

> <PUBCHEM_MOLECULAR_WEIGHT>
243.34

> <PUBCHEM_OPENEYE_CAN_SMILES>
C(CCCCCC(=O)N)CCCCCC(=O)O

> <PUBCHEM_OPENEYE_ISO_SMILES>
C(CCCCCC(=O)N)CCCCCC(=O)O

> <PUBCHEM_CACTVS_TPSA>
80.4

> <PUBCHEM_MONOISOTOPIC_WEIGHT>
243.18344366

> <PUBCHEM_TOTAL_CHARGE>
0

> <PUBCHEM_HEAVY_ATOM_COUNT>
17

> <PUBCHEM_ATOM_DEF_STEREO_COUNT>
0

> <PUBCHEM_ATOM_UDEF_STEREO_COUNT>
0

> <PUBCHEM_BOND_DEF_STEREO_COUNT>
0

> <PUBCHEM_BOND_UDEF_STEREO_COUNT>
0

> <PUBCHEM_ISOTOPIC_ATOM_COUNT>
0

> <PUBCHEM_COMPONENT_COUNT>
1

> <PUBCHEM_CACTVS_TAUTO_COUNT>
-1

> <PUBCHEM_COORDINATE_TYPE>
1
5
255

$$$$
