 
  -OEChem-10192104252D

 22 23  0     0  0  0  0  0  0999 V2000
    4.2690    1.8776    0.0000 O   0  0  0  0  0  0  0  0  0  0  0  0
    7.6648   -0.1224    0.0000 O   0  0  0  0  0  0  0  0  0  0  0  0
    6.0812   -0.9271    0.0000 N   0  0  0  0  0  0  0  0  0  0  0  0
    6.0812    0.6824    0.0000 N   0  0  0  0  0  0  0  0  0  0  0  0
    3.4030    0.3776    0.0000 N   0  0  0  0  0  0  0  0  0  0  0  0
    4.2690   -1.1224    0.0000 N   0  0  0  0  0  0  0  0  0  0  0  0
    2.5369    0.8776    0.0000 N   0  0  0  0  0  0  0  0  0  0  0  0
    2.5369   -1.1224    0.0000 N   0  0  0  0  0  0  0  0  0  0  0  0
    5.1350    0.3776    0.0000 C   0  0  0  0  0  0  0  0  0  0  0  0
    5.1350   -0.6224    0.0000 C   0  0  0  0  0  0  0  0  0  0  0  0
    6.6648   -0.1224    0.0000 C   0  0  0  0  0  0  0  0  0  0  0  0
    4.2690    0.8776    0.0000 C   0  0  0  0  0  0  0  0  0  0  0  0
    3.4030   -0.6224    0.0000 C   0  0  0  0  0  0  0  0  0  0  0  0
    6.3919   -1.8776    0.0000 C   0  0  0  0  0  0  0  0  0  0  0  0
    6.2738    1.2717    0.0000 H   0  0  0  0  0  0  0  0  0  0  0  0
    5.8026   -2.0702    0.0000 H   0  0  0  0  0  0  0  0  0  0  0  0
    6.5845   -2.4670    0.0000 H   0  0  0  0  0  0  0  0  0  0  0  0
    6.9812   -1.6850    0.0000 H   0  0  0  0  0  0  0  0  0  0  0  0
    2.0000    0.5676    0.0000 H   0  0  0  0  0  0  0  0  0  0  0  0
    2.5369    1.4976    0.0000 H   0  0  0  0  0  0  0  0  0  0  0  0
    2.5369   -1.7424    0.0000 H   0  0  0  0  0  0  0  0  0  0  0  0
    2.0000   -0.8124    0.0000 H   0  0  0  0  0  0  0  0  0  0  0  0
  1 12  2  0  0  0  0
  2 11  2  0  0  0  0
  3 10  1  0  0  0  0
  3 11  1  0  0  0  0
  3 14  1  0  0  0  0
  4  9  1  0  0  0  0
  4 11  1  0  0  0  0
  4 15  1  0  0  0  0
  5  7  1  0  0  0  0
  5 12  1  0  0  0  0
  5 13  1  0  0  0  0
  6 10  1  0  0  0  0
  6 13  2  0  0  0  0
  7 19  1  0  0  0  0
  7 20  1  0  0  0  0
  8 13  1  0  0  0  0
  8 21  1  0  0  0  0
  8 22  1  0  0  0  0
  9 10  2  0  0  0  0
  9 12  1  0  0  0  0
 14 16  1  0  0  0  0
 14 17  1  0  0  0  0
 14 18  1  0  0  0  0
M  END
> <PUBCHEM_COMPOUND_CID>
119097987

> <PUBCHEM_COMPOUND_CANONICALIZED>
1

> <PUBCHEM_CACTVS_COMPLEXITY>
397

> <PUBCHEM_CACTVS_HBOND_ACCEPTOR>
4

> <PUBCHEM_CACTVS_HBOND_DONOR>
3

> <PUBCHEM_CACTVS_ROTATABLE_BOND>
0

> <PUBCHEM_CACTVS_SUBSKEYS>
AAADccBjsAAAAAAAAAAAAAAAAAAAAQAAAAAgAAAAAAAAAEAAAAAAHgAYAAAACAgBgAQDAAPCAACoAAVQdACAAAEAAAAXIACIAECAQAAACCAQAAAYBwIAAEAAAAAAAAAAAAAAAAAAAAAAAAAAAAAAAAAAAA==

> <PUBCHEM_IUPAC_OPENEYE_NAME>
1,2-diamino-9-methyl-7H-purine-6,8-dione

> <PUBCHEM_IUPAC_CAS_NAME>
1,2-diamino-9-methyl-7H-purine-6,8-dione

> <PUBCHEM_IUPAC_NAME_MARKUP>
1,2-diamino-9-methyl-7<I>H</I>-purine-6,8-dione

> <PUBCHEM_IUPAC_NAME>
1,2-diamino-9-methyl-7H-purine-6,8-dione

> <PUBCHEM_IUPAC_SYSTEMATIC_NAME>
1,2-bis(azanyl)-9-methyl-7H-purine-6,8-dione

> <PUBCHEM_IUPAC_TRADITIONAL_NAME>
1,2-diamino-9-methyl-7H-purine-6,8-quinone

> <PUBCHEM_IUPAC_INCHI>
InChI=1S/C6H8N6O2/c1-11-3-2(9-6(11)14)4(13)12(8)5(7)10-3/h8H2,1H3,(H2,7,10)(H,9,14)

> <PUBCHEM_IUPAC_INCHIKEY>
PJBLMBIBADJYDU-UHFFFAOYSA-N

> <PUBCHEM_XLOGP3_AA>
-2.6

> <PUBCHEM_EXACT_MASS>
196.07087352

> <PUBCHEM_MOLECULAR_FORMULA>
C6H8N6O2

> <PUBCHEM_MOLECULAR_WEIGHT>
196.17

> <PUBCHEM_OPENEYE_CAN_SMILES>
CN1C2=C(C(=O)N(C(=N2)N)N)NC1=O

> <PUBCHEM_OPENEYE_ISO_SMILES>
CN1C2=C(C(=O)N(C(=N2)N)N)NC1=O

> <PUBCHEM_CACTVS_TPSA>
117

> <PUBCHEM_MONOISOTOPIC_WEIGHT>
196.07087352

> <PUBCHEM_TOTAL_CHARGE>
0

> <PUBCHEM_HEAVY_ATOM_COUNT>
14

> <PUBCHEM_ATOM_DEF_STEREO_COUNT>
0

> <PUBCHEM_ATOM_UDEF_STEREO_COUNT>
0

> <PUBCHEM_BOND_DEF_STEREO_COUNT>
0

> <PUBCHEM_BOND_UDEF_STEREO_COUNT>
0

> <PUBCHEM_ISOTOPIC_ATOM_COUNT>
0

> <PUBCHEM_COMPONENT_COUNT>
1

> <PUBCHEM_CACTVS_TAUTO_COUNT>
-1

> <PUBCHEM_COORDINATE_TYPE>
1
5
255

> <PUBCHEM_BONDANNOTATIONS>
3  10  8
3  11  8
4  11  8
4  9  8
5  12  8
5  13  8
6  10  8
6  13  8
9  10  8
9  12  8

$$$$
