 
  -OEChem-10192104242D

 63 64  0     1  0  0  0  0  0999 V2000
    5.1727    0.2502    0.0000 O   0  0  0  0  0  0  0  0  0  0  0  0
    3.4668   -0.0505    0.0000 O   0  0  0  0  0  0  0  0  0  0  0  0
    4.0593    1.5771    0.0000 O   0  0  0  0  0  0  0  0  0  0  0  0
    3.9376   -4.0228    0.0000 O   0  0  0  0  0  0  0  0  0  0  0  0
    2.6106   -1.7246    0.0000 O   0  0  0  0  0  0  0  0  0  0  0  0
    8.2587    2.9702    0.0000 O   0  0  0  0  0  0  0  0  0  0  0  0
    5.7651    3.8778    0.0000 O   0  0  0  0  0  0  0  0  0  0  0  0
    2.8744   -1.0766    0.0000 O   0  0  0  0  0  0  0  0  0  0  0  0
    4.8990    3.3778    0.0000 O   0  0  0  0  0  0  0  0  0  0  0  0
    2.6106   -2.9094    0.0000 O   0  0  0  0  0  0  0  0  0  0  0  0
    2.9114   -3.4304    0.0000 O   0  0  0  0  0  0  0  0  0  0  0  0
    6.9319    4.0835    0.0000 O   0  0  0  0  0  0  0  0  0  0  0  0
    7.4971    3.8778    0.0000 O   0  0  0  0  0  0  0  0  0  0  0  0
    3.9878    0.2503    0.0000 O   0  0  0  0  0  0  0  0  0  0  0  0
    3.9143    2.5516    0.0000 O   0  0  0  0  0  0  0  0  0  0  0  0
    4.2383   -2.3171    0.0000 C   0  0  0  0  0  0  0  0  0  0  0  0
    6.6311    2.3778    0.0000 C   0  0  0  0  0  0  0  0  0  0  0  0
    4.5803   -1.3774    0.0000 C   0  0  3  0  0  0  0  0  0  0  0  0
    5.7651    1.8778    0.0000 C   0  0  3  0  0  0  0  0  0  0  0  0
    4.8811   -3.0832    0.0000 C   0  0  3  0  0  0  0  0  0  0  0  0
    7.4971    1.8778    0.0000 C   0  0  3  0  0  0  0  0  0  0  0  0
    5.5652   -1.2038    0.0000 C   0  0  0  0  0  0  0  0  0  0  0  0
    5.7651    0.8778    0.0000 C   0  0  0  0  0  0  0  0  0  0  0  0
    5.8660   -2.9095    0.0000 C   0  0  0  0  0  0  0  0  0  0  0  0
    7.4971    0.8778    0.0000 C   0  0  0  0  0  0  0  0  0  0  0  0
    6.2080   -1.9698    0.0000 C   0  0  0  0  0  0  0  0  0  0  0  0
    6.6311    0.3778    0.0000 C   0  0  0  0  0  0  0  0  0  0  0  0
    4.4066   -0.3926    0.0000 C   0  0  0  0  0  0  0  0  0  0  0  0
    4.9989    1.2351    0.0000 C   0  0  0  0  0  0  0  0  0  0  0  0
    4.5391   -4.0228    0.0000 C   0  0  0  0  0  0  0  0  0  0  0  0
    8.3631    2.3778    0.0000 C   0  0  0  0  0  0  0  0  0  0  0  0
    3.5954   -3.0831    0.0000 C   0  0  0  0  0  0  0  0  0  0  0  0
    3.2534   -2.4907    0.0000 C   0  0  0  0  0  0  0  0  0  0  0  0
    7.2739    3.1438    0.0000 C   0  0  0  0  0  0  0  0  0  0  0  0
    6.6311    3.3778    0.0000 C   0  0  0  0  0  0  0  0  0  0  0  0
    3.8142   -0.7346    0.0000 C   0  0  0  0  0  0  0  0  0  0  0  0
    4.8990    2.3778    0.0000 C   0  0  0  0  0  0  0  0  0  0  0  0
    5.2796   -3.5581    0.0000 H   0  0  0  0  0  0  0  0  0  0  0  0
    7.4971    2.4978    0.0000 H   0  0  0  0  0  0  0  0  0  0  0  0
    6.1021   -0.8937    0.0000 H   0  0  0  0  0  0  0  0  0  0  0  0
    5.3531   -0.6212    0.0000 H   0  0  0  0  0  0  0  0  0  0  0  0
    5.1545    0.9855    0.0000 H   0  0  0  0  0  0  0  0  0  0  0  0
    5.5530    0.2952    0.0000 H   0  0  0  0  0  0  0  0  0  0  0  0
    5.8660   -3.5295    0.0000 H   0  0  0  0  0  0  0  0  0  0  0  0
    6.4765   -3.0172    0.0000 H   0  0  0  0  0  0  0  0  0  0  0  0
    7.7092    0.2952    0.0000 H   0  0  0  0  0  0  0  0  0  0  0  0
    8.1077    0.9855    0.0000 H   0  0  0  0  0  0  0  0  0  0  0  0
    6.7449   -2.2798    0.0000 H   0  0  0  0  0  0  0  0  0  0  0  0
    6.6065   -1.4948    0.0000 H   0  0  0  0  0  0  0  0  0  0  0  0
    6.2326   -0.0972    0.0000 H   0  0  0  0  0  0  0  0  0  0  0  0
    7.0296   -0.0972    0.0000 H   0  0  0  0  0  0  0  0  0  0  0  0
    3.9565   -3.8108    0.0000 H   0  0  0  0  0  0  0  0  0  0  0  0
    4.3270   -4.6054    0.0000 H   0  0  0  0  0  0  0  0  0  0  0  0
    5.1217   -4.2349    0.0000 H   0  0  0  0  0  0  0  0  0  0  0  0
    8.6732    1.8408    0.0000 H   0  0  0  0  0  0  0  0  0  0  0  0
    8.9001    2.6878    0.0000 H   0  0  0  0  0  0  0  0  0  0  0  0
    8.0532    2.9147    0.0000 H   0  0  0  0  0  0  0  0  0  0  0  0
    3.5390   -4.4978    0.0000 H   0  0  0  0  0  0  0  0  0  0  0  0
    2.0000   -1.8323    0.0000 H   0  0  0  0  0  0  0  0  0  0  0  0
    8.6572    3.4451    0.0000 H   0  0  0  0  0  0  0  0  0  0  0  0
    5.7651    4.4978    0.0000 H   0  0  0  0  0  0  0  0  0  0  0  0
    2.3996   -0.6781    0.0000 H   0  0  0  0  0  0  0  0  0  0  0  0
    4.3621    3.6878    0.0000 H   0  0  0  0  0  0  0  0  0  0  0  0
  1 28  1  0  0  0  0
  1 29  1  0  0  0  0
  2 28  2  0  0  0  0
  3 29  2  0  0  0  0
  4 32  1  0  0  0  0
  4 58  1  0  0  0  0
  5 33  1  0  0  0  0
  5 59  1  0  0  0  0
  6 34  1  0  0  0  0
  6 60  1  0  0  0  0
  7 35  1  0  0  0  0
  7 61  1  0  0  0  0
  8 36  1  0  0  0  0
  8 62  1  0  0  0  0
  9 37  1  0  0  0  0
  9 63  1  0  0  0  0
 10 32  2  0  0  0  0
 11 33  2  0  0  0  0
 12 34  2  0  0  0  0
 13 35  2  0  0  0  0
 14 36  2  0  0  0  0
 15 37  2  0  0  0  0
 16 18  1  0  0  0  0
 16 20  1  0  0  0  0
 16 32  1  0  0  0  0
 16 33  1  0  0  0  0
 17 19  1  0  0  0  0
 17 21  1  0  0  0  0
 17 34  1  0  0  0  0
 17 35  1  0  0  0  0
 18 22  1  0  0  0  0
 18 28  1  0  0  0  0
 18 36  1  0  0  0  0
 19 23  1  0  0  0  0
 19 29  1  0  0  0  0
 19 37  1  0  0  0  0
 20 24  1  0  0  0  0
 20 30  1  0  0  0  0
 20 38  1  0  0  0  0
 21 25  1  0  0  0  0
 21 31  1  0  0  0  0
 21 39  1  0  0  0  0
 22 26  1  0  0  0  0
 22 40  1  0  0  0  0
 22 41  1  0  0  0  0
 23 27  1  0  0  0  0
 23 42  1  0  0  0  0
 23 43  1  0  0  0  0
 24 26  1  0  0  0  0
 24 44  1  0  0  0  0
 24 45  1  0  0  0  0
 25 27  1  0  0  0  0
 25 46  1  0  0  0  0
 25 47  1  0  0  0  0
 26 48  1  0  0  0  0
 26 49  1  0  0  0  0
 27 50  1  0  0  0  0
 27 51  1  0  0  0  0
 30 52  1  0  0  0  0
 30 53  1  0  0  0  0
 30 54  1  0  0  0  0
 31 55  1  0  0  0  0
 31 56  1  0  0  0  0
 31 57  1  0  0  0  0
M  END
> <PUBCHEM_COMPOUND_CID>
87793160

> <PUBCHEM_COMPOUND_CANONICALIZED>
1

> <PUBCHEM_CACTVS_COMPLEXITY>
978

> <PUBCHEM_CACTVS_HBOND_ACCEPTOR>
15

> <PUBCHEM_CACTVS_HBOND_DONOR>
6

> <PUBCHEM_CACTVS_ROTATABLE_BOND>
10

> <PUBCHEM_CACTVS_SUBSKEYS>
AAADceB4PAAAAAAAAAAAAAAAAAAAAAAAAAAwYAAAAAAAAAAAAAAAGgAACAAADwCAgAACCAAABgAIAACQCAAAAAAAAAAAAAEAAAAAABYIAAACQAAFIAAAAAHLyOCPgAAAAAAAAAAAAAQAACAAAAAAAAAAAA==

> <PUBCHEM_IUPAC_OPENEYE_NAME>
6-methyl-2-(1,2,2-tricarboxy-3-methyl-cyclohexanecarbonyl)oxycarbonyl-cyclohexane-1,1,2-tricarboxylic acid

> <PUBCHEM_IUPAC_CAS_NAME>
6-methyl-2-[oxo-[oxo-(1,2,2-tricarboxy-3-methylcyclohexyl)methoxy]methyl]cyclohexane-1,1,2-tricarboxylic acid

> <PUBCHEM_IUPAC_NAME_MARKUP>
6-methyl-2-(1,2,2-tricarboxy-3-methylcyclohexanecarbonyl)oxycarbonylcyclohexane-1,1,2-tricarboxylic acid

> <PUBCHEM_IUPAC_NAME>
6-methyl-2-(1,2,2-tricarboxy-3-methylcyclohexanecarbonyl)oxycarbonylcyclohexane-1,1,2-tricarboxylic acid

> <PUBCHEM_IUPAC_SYSTEMATIC_NAME>
6-methyl-2-(1,2,2-tricarboxy-3-methyl-cyclohexyl)carbonyloxycarbonyl-cyclohexane-1,1,2-tricarboxylic acid

> <PUBCHEM_IUPAC_TRADITIONAL_NAME>
6-methyl-2-(1,2,2-tricarboxy-3-methyl-cyclohexanecarbonyl)oxycarbonyl-cyclohexane-1,1,2-tricarboxylic acid

> <PUBCHEM_IUPAC_INCHI>
InChI=1S/C22H26O15/c1-9-5-3-7-19(11(23)24,21(9,13(27)28)14(29)30)17(35)37-18(36)20(12(25)26)8-4-6-10(2)22(20,15(31)32)16(33)34/h9-10H,3-8H2,1-2H3,(H,23,24)(H,25,26)(H,27,28)(H,29,30)(H,31,32)(H,33,34)

> <PUBCHEM_IUPAC_INCHIKEY>
ZLVALZYVSYGQLU-UHFFFAOYSA-N

> <PUBCHEM_XLOGP3_AA>
1.2

> <PUBCHEM_EXACT_MASS>
530.12717012

> <PUBCHEM_MOLECULAR_FORMULA>
C22H26O15

> <PUBCHEM_MOLECULAR_WEIGHT>
530.4

> <PUBCHEM_OPENEYE_CAN_SMILES>
CC1CCCC(C1(C(=O)O)C(=O)O)(C(=O)O)C(=O)OC(=O)C2(CCCC(C2(C(=O)O)C(=O)O)C)C(=O)O

> <PUBCHEM_OPENEYE_ISO_SMILES>
CC1CCCC(C1(C(=O)O)C(=O)O)(C(=O)O)C(=O)OC(=O)C2(CCCC(C2(C(=O)O)C(=O)O)C)C(=O)O

> <PUBCHEM_CACTVS_TPSA>
267

> <PUBCHEM_MONOISOTOPIC_WEIGHT>
530.12717012

> <PUBCHEM_TOTAL_CHARGE>
0

> <PUBCHEM_HEAVY_ATOM_COUNT>
37

> <PUBCHEM_ATOM_DEF_STEREO_COUNT>
0

> <PUBCHEM_ATOM_UDEF_STEREO_COUNT>
4

> <PUBCHEM_BOND_DEF_STEREO_COUNT>
0

> <PUBCHEM_BOND_UDEF_STEREO_COUNT>
0

> <PUBCHEM_ISOTOPIC_ATOM_COUNT>
0

> <PUBCHEM_COMPONENT_COUNT>
1

> <PUBCHEM_CACTVS_TAUTO_COUNT>
-1

> <PUBCHEM_COORDINATE_TYPE>
1
5
255

> <PUBCHEM_BONDANNOTATIONS>
18  36  3
19  37  3
20  30  3
21  31  3

$$$$
