 
  -OEChem-10192104042D

 74 75  0     1  0  0  0  0  0999 V2000
    7.1962    0.4050    0.0000 O   0  0  0  0  0  0  0  0  0  0  0  0
    8.0622   -2.0950    0.0000 O   0  0  0  0  0  0  0  0  0  0  0  0
    6.3301   -2.0950    0.0000 O   0  0  0  0  0  0  0  0  0  0  0  0
    9.7942    0.9050    0.0000 O   0  0  0  0  0  0  0  0  0  0  0  0
    9.7942   -1.0950    0.0000 O   0  0  0  0  0  0  0  0  0  0  0  0
    8.0622   -4.0950    0.0000 O   0  0  0  0  0  0  0  0  0  0  0  0
    6.3301   -5.0950    0.0000 O   0  0  0  0  0  0  0  0  0  0  0  0
    5.4641   -0.5950    0.0000 O   0  0  0  0  0  0  0  0  0  0  0  0
    4.5981   -4.0950    0.0000 O   0  0  0  0  0  0  0  0  0  0  0  0
    3.7320   -2.5950    0.0000 O   0  0  0  0  0  0  0  0  0  0  0  0
    6.3301    3.9050    0.0000 O   0  0  0  0  0  0  0  0  0  0  0  0
    8.9282    2.4050    0.0000 O   0  0  0  0  0  0  0  0  0  0  0  0
    6.3301    0.9050    0.0000 O   0  0  0  0  0  0  0  0  0  0  0  0
    2.8660   -1.0950    0.0000 O   0  0  0  0  0  0  0  0  0  0  0  0
    7.1962    5.4050    0.0000 O   0  0  0  0  0  0  0  0  0  0  0  0
    8.0622   -1.0950    0.0000 C   0  0  3  0  0  0  0  0  0  0  0  0
    8.9282   -0.5950    0.0000 C   0  0  3  0  0  0  0  0  0  0  0  0
    8.9282    0.4050    0.0000 C   0  0  3  0  0  0  0  0  0  0  0  0
    8.0622    0.9050    0.0000 C   0  0  3  0  0  0  0  0  0  0  0  0
    7.1962   -0.5950    0.0000 C   0  0  3  0  0  0  0  0  0  0  0  0
    7.1962   -2.5950    0.0000 C   0  0  3  0  0  0  0  0  0  0  0  0
    7.1962   -3.5950    0.0000 C   0  0  3  0  0  0  0  0  0  0  0  0
    8.0622    1.9050    0.0000 C   0  0  0  0  0  0  0  0  0  0  0  0
    6.3301   -4.0950    0.0000 C   0  0  3  0  0  0  0  0  0  0  0  0
    5.4641   -3.5950    0.0000 C   0  0  3  0  0  0  0  0  0  0  0  0
    5.4641   -2.5950    0.0000 C   0  0  3  0  0  0  0  0  0  0  0  0
    6.3301   -1.0950    0.0000 C   0  0  0  0  0  0  0  0  0  0  0  0
    7.1962    2.4050    0.0000 C   0  0  0  0  0  0  0  0  0  0  0  0
    4.5981   -2.0950    0.0000 C   0  0  0  0  0  0  0  0  0  0  0  0
    7.1962    3.4050    0.0000 C   0  0  0  0  0  0  0  0  0  0  0  0
    9.7942    1.9050    0.0000 C   0  0  0  0  0  0  0  0  0  0  0  0
    5.4641    0.4050    0.0000 C   0  0  0  0  0  0  0  0  0  0  0  0
   10.6603    2.4050    0.0000 C   0  0  0  0  0  0  0  0  0  0  0  0
    2.8660   -2.0950    0.0000 C   0  0  0  0  0  0  0  0  0  0  0  0
    4.5981    0.9050    0.0000 C   0  0  0  0  0  0  0  0  0  0  0  0
    6.3301    4.9050    0.0000 C   0  0  0  0  0  0  0  0  0  0  0  0
    2.0000   -2.5950    0.0000 C   0  0  0  0  0  0  0  0  0  0  0  0
    5.4641    5.4050    0.0000 C   0  0  0  0  0  0  0  0  0  0  0  0
    7.5252   -1.4050    0.0000 H   0  0  0  0  0  0  0  0  0  0  0  0
    8.9282   -1.2150    0.0000 H   0  0  0  0  0  0  0  0  0  0  0  0
    9.4651    0.0950    0.0000 H   0  0  0  0  0  0  0  0  0  0  0  0
    7.5252    1.2150    0.0000 H   0  0  0  0  0  0  0  0  0  0  0  0
    6.6592   -0.2850    0.0000 H   0  0  0  0  0  0  0  0  0  0  0  0
    7.7331   -2.9050    0.0000 H   0  0  0  0  0  0  0  0  0  0  0  0
    7.1962   -4.2150    0.0000 H   0  0  0  0  0  0  0  0  0  0  0  0
    8.6728    1.7973    0.0000 H   0  0  0  0  0  0  0  0  0  0  0  0
    8.2742    2.4876    0.0000 H   0  0  0  0  0  0  0  0  0  0  0  0
    5.7932   -4.4050    0.0000 H   0  0  0  0  0  0  0  0  0  0  0  0
    5.4641   -4.2150    0.0000 H   0  0  0  0  0  0  0  0  0  0  0  0
    5.4641   -1.9750    0.0000 H   0  0  0  0  0  0  0  0  0  0  0  0
    5.9316   -1.5700    0.0000 H   0  0  0  0  0  0  0  0  0  0  0  0
    6.7287   -1.5700    0.0000 H   0  0  0  0  0  0  0  0  0  0  0  0
    6.5856    2.5127    0.0000 H   0  0  0  0  0  0  0  0  0  0  0  0
    6.9841    1.8224    0.0000 H   0  0  0  0  0  0  0  0  0  0  0  0
   10.3312   -0.7850    0.0000 H   0  0  0  0  0  0  0  0  0  0  0  0
    4.9966   -1.6200    0.0000 H   0  0  0  0  0  0  0  0  0  0  0  0
    4.1996   -1.6200    0.0000 H   0  0  0  0  0  0  0  0  0  0  0  0
    8.0622   -4.7150    0.0000 H   0  0  0  0  0  0  0  0  0  0  0  0
    7.8067    3.2973    0.0000 H   0  0  0  0  0  0  0  0  0  0  0  0
    7.4082    3.9876    0.0000 H   0  0  0  0  0  0  0  0  0  0  0  0
    5.7932   -5.4050    0.0000 H   0  0  0  0  0  0  0  0  0  0  0  0
    4.5981   -4.7150    0.0000 H   0  0  0  0  0  0  0  0  0  0  0  0
   10.9703    1.8681    0.0000 H   0  0  0  0  0  0  0  0  0  0  0  0
   11.1972    2.7150    0.0000 H   0  0  0  0  0  0  0  0  0  0  0  0
   10.3503    2.9419    0.0000 H   0  0  0  0  0  0  0  0  0  0  0  0
    4.9081    1.4419    0.0000 H   0  0  0  0  0  0  0  0  0  0  0  0
    4.0611    1.2150    0.0000 H   0  0  0  0  0  0  0  0  0  0  0  0
    4.2881    0.3681    0.0000 H   0  0  0  0  0  0  0  0  0  0  0  0
    1.6900   -2.0581    0.0000 H   0  0  0  0  0  0  0  0  0  0  0  0
    1.4631   -2.9050    0.0000 H   0  0  0  0  0  0  0  0  0  0  0  0
    2.3100   -3.1319    0.0000 H   0  0  0  0  0  0  0  0  0  0  0  0
    5.7741    5.9419    0.0000 H   0  0  0  0  0  0  0  0  0  0  0  0
    4.9272    5.7150    0.0000 H   0  0  0  0  0  0  0  0  0  0  0  0
    5.1541    4.8681    0.0000 H   0  0  0  0  0  0  0  0  0  0  0  0
  1 19  1  0  0  0  0
  1 20  1  0  0  0  0
  2 16  1  0  0  0  0
  2 21  1  0  0  0  0
  3 21  1  0  0  0  0
  3 26  1  0  0  0  0
  4 18  1  0  0  0  0
  4 31  1  0  0  0  0
  5 17  1  0  0  0  0
  5 55  1  0  0  0  0
  6 22  1  0  0  0  0
  6 58  1  0  0  0  0
  7 24  1  0  0  0  0
  7 61  1  0  0  0  0
  8 27  1  0  0  0  0
  8 32  1  0  0  0  0
  9 25  1  0  0  0  0
  9 62  1  0  0  0  0
 10 29  1  0  0  0  0
 10 34  1  0  0  0  0
 11 30  1  0  0  0  0
 11 36  1  0  0  0  0
 12 31  2  0  0  0  0
 13 32  2  0  0  0  0
 14 34  2  0  0  0  0
 15 36  2  0  0  0  0
 16 17  1  0  0  0  0
 16 20  1  0  0  0  0
 16 39  1  0  0  0  0
 17 18  1  0  0  0  0
 17 40  1  0  0  0  0
 18 19  1  0  0  0  0
 18 41  1  0  0  0  0
 19 23  1  0  0  0  0
 19 42  1  0  0  0  0
 20 27  1  0  0  0  0
 20 43  1  0  0  0  0
 21 22  1  0  0  0  0
 21 44  1  0  0  0  0
 22 24  1  0  0  0  0
 22 45  1  0  0  0  0
 23 28  1  0  0  0  0
 23 46  1  0  0  0  0
 23 47  1  0  0  0  0
 24 25  1  0  0  0  0
 24 48  1  0  0  0  0
 25 26  1  0  0  0  0
 25 49  1  0  0  0  0
 26 29  1  0  0  0  0
 26 50  1  0  0  0  0
 27 51  1  0  0  0  0
 27 52  1  0  0  0  0
 28 30  1  0  0  0  0
 28 53  1  0  0  0  0
 28 54  1  0  0  0  0
 29 56  1  0  0  0  0
 29 57  1  0  0  0  0
 30 59  1  0  0  0  0
 30 60  1  0  0  0  0
 31 33  1  0  0  0  0
 32 35  1  0  0  0  0
 33 63  1  0  0  0  0
 33 64  1  0  0  0  0
 33 65  1  0  0  0  0
 34 37  1  0  0  0  0
 35 66  1  0  0  0  0
 35 67  1  0  0  0  0
 35 68  1  0  0  0  0
 36 38  1  0  0  0  0
 37 69  1  0  0  0  0
 37 70  1  0  0  0  0
 37 71  1  0  0  0  0
 38 72  1  0  0  0  0
 38 73  1  0  0  0  0
 38 74  1  0  0  0  0
M  END
> <PUBCHEM_COMPOUND_CID>
123382025

> <PUBCHEM_COMPOUND_CANONICALIZED>
1

> <PUBCHEM_CACTVS_COMPLEXITY>
819

> <PUBCHEM_CACTVS_HBOND_ACCEPTOR>
15

> <PUBCHEM_CACTVS_HBOND_DONOR>
4

> <PUBCHEM_CACTVS_ROTATABLE_BOND>
15

> <PUBCHEM_CACTVS_SUBSKEYS>
AAADcfB4PAAAAAAAAAAAAAAAAAAAAAAAAAAkSAAAAAAAAAAAAAAAGgAACAAACBSwgAMCCAAABgAIAACQCAAAAAAAAAAAAAAAAAAREAIAAAAiQAAFAAAHAAHA4KwAAAAAAAAAAAAAAAAAAAAAAAAAAAAAAA==

> <PUBCHEM_IUPAC_OPENEYE_NAME>
3-[3-acetoxy-6-(acetoxymethyl)-5-[6-(acetoxymethyl)-3,4,5-trihydroxy-tetrahydropyran-2-yl]oxy-4-hydroxy-tetrahydropyran-2-yl]propyl acetate

> <PUBCHEM_IUPAC_CAS_NAME>
acetic acid 3-[3-acetyloxy-6-(acetyloxymethyl)-5-[[6-(acetyloxymethyl)-3,4,5-trihydroxy-2-oxanyl]oxy]-4-hydroxy-2-oxanyl]propyl ester

> <PUBCHEM_IUPAC_NAME_MARKUP>
3-[3-acetyloxy-6-(acetyloxymethyl)-5-[6-(acetyloxymethyl)-3,4,5-trihydroxyoxan-2-yl]oxy-4-hydroxyoxan-2-yl]propyl acetate

> <PUBCHEM_IUPAC_NAME>
3-[3-acetyloxy-6-(acetyloxymethyl)-5-[6-(acetyloxymethyl)-3,4,5-trihydroxyoxan-2-yl]oxy-4-hydroxyoxan-2-yl]propyl acetate

> <PUBCHEM_IUPAC_SYSTEMATIC_NAME>
3-[3-acetyloxy-6-(acetyloxymethyl)-5-[6-(acetyloxymethyl)-3,4,5-tris(oxidanyl)oxan-2-yl]oxy-4-oxidanyl-oxan-2-yl]propyl ethanoate

> <PUBCHEM_IUPAC_TRADITIONAL_NAME>
acetic acid 3-[3-acetoxy-6-(acetoxymethyl)-5-[6-(acetoxymethyl)-3,4,5-trihydroxy-tetrahydropyran-2-yl]oxy-4-hydroxy-tetrahydropyran-2-yl]propyl ester

> <PUBCHEM_IUPAC_INCHI>
InChI=1S/C23H36O15/c1-10(24)32-7-5-6-14-21(35-13(4)27)20(31)22(16(36-14)9-34-12(3)26)38-23-19(30)18(29)17(28)15(37-23)8-33-11(2)25/h14-23,28-31H,5-9H2,1-4H3

> <PUBCHEM_IUPAC_INCHIKEY>
ACBJBSNKULDYFJ-UHFFFAOYSA-N

> <PUBCHEM_XLOGP3_AA>
-2.4

> <PUBCHEM_EXACT_MASS>
552.20542044

> <PUBCHEM_MOLECULAR_FORMULA>
C23H36O15

> <PUBCHEM_MOLECULAR_WEIGHT>
552.5

> <PUBCHEM_OPENEYE_CAN_SMILES>
CC(=O)OCCCC1C(C(C(C(O1)COC(=O)C)OC2C(C(C(C(O2)COC(=O)C)O)O)O)O)OC(=O)C

> <PUBCHEM_OPENEYE_ISO_SMILES>
CC(=O)OCCCC1C(C(C(C(O1)COC(=O)C)OC2C(C(C(C(O2)COC(=O)C)O)O)O)O)OC(=O)C

> <PUBCHEM_CACTVS_TPSA>
214

> <PUBCHEM_MONOISOTOPIC_WEIGHT>
552.20542044

> <PUBCHEM_TOTAL_CHARGE>
0

> <PUBCHEM_HEAVY_ATOM_COUNT>
38

> <PUBCHEM_ATOM_DEF_STEREO_COUNT>
0

> <PUBCHEM_ATOM_UDEF_STEREO_COUNT>
10

> <PUBCHEM_BOND_DEF_STEREO_COUNT>
0

> <PUBCHEM_BOND_UDEF_STEREO_COUNT>
0

> <PUBCHEM_ISOTOPIC_ATOM_COUNT>
0

> <PUBCHEM_COMPONENT_COUNT>
1

> <PUBCHEM_CACTVS_TAUTO_COUNT>
-1

> <PUBCHEM_COORDINATE_TYPE>
1
5
255

> <PUBCHEM_BONDANNOTATIONS>
19  23  3
16  2  3
21  2  3
20  27  3
26  29  3
18  4  3
17  5  3
22  6  3
24  7  3
25  9  3

$$$$
