 
  -OEChem-10192103462D

 82 82  0     1  0  0  0  0  0999 V2000
    3.4030   -1.5000    0.0000 O   0  0  0  0  0  0  0  0  0  0  0  0
    6.8671   -2.5000    0.0000 O   0  0  0  0  0  0  0  0  0  0  0  0
   10.3312   -1.5000    0.0000 O   0  0  0  0  0  0  0  0  0  0  0  0
    8.5991    0.5000    0.0000 O   0  0  0  0  0  0  0  0  0  0  0  0
    9.4651    0.0000    0.0000 O   0  0  0  0  0  0  0  0  0  0  0  0
    6.0010   -1.0000    0.0000 N   0  0  0  0  0  0  0  0  0  0  0  0
    4.2690    0.0000    0.0000 N   0  0  0  0  0  0  0  0  0  0  0  0
    8.5991   -1.5000    0.0000 N   0  0  0  0  0  0  0  0  0  0  0  0
    5.1350   -1.5000    0.0000 C   0  0  3  0  0  0  0  0  0  0  0  0
    6.0010    0.0000    0.0000 C   0  0  0  0  0  0  0  0  0  0  0  0
    6.8671    0.5000    0.0000 C   0  0  0  0  0  0  0  0  0  0  0  0
    6.8671    1.5000    0.0000 C   0  0  0  0  0  0  0  0  0  0  0  0
    3.4030    0.5000    0.0000 C   0  0  0  0  0  0  0  0  0  0  0  0
    7.7331    2.0000    0.0000 C   0  0  0  0  0  0  0  0  0  0  0  0
    4.2690   -1.0000    0.0000 C   0  0  0  0  0  0  0  0  0  0  0  0
    6.8671   -1.5000    0.0000 C   0  0  0  0  0  0  0  0  0  0  0  0
    5.1350   -2.5000    0.0000 C   0  0  0  0  0  0  0  0  0  0  0  0
    7.7331   -1.0000    0.0000 C   0  0  3  0  0  0  0  0  0  0  0  0
    7.7331    3.0000    0.0000 C   0  0  0  0  0  0  0  0  0  0  0  0
    2.5369    1.0000    0.0000 C   0  0  0  0  0  0  0  0  0  0  0  0
    3.9030    1.3660    0.0000 C   0  0  0  0  0  0  0  0  0  0  0  0
    2.9030   -0.3660    0.0000 C   0  0  0  0  0  0  0  0  0  0  0  0
    8.5991    3.5000    0.0000 C   0  0  0  0  0  0  0  0  0  0  0  0
    4.2690   -3.0000    0.0000 C   0  0  0  0  0  0  0  0  0  0  0  0
    6.0010   -3.0000    0.0000 C   0  0  0  0  0  0  0  0  0  0  0  0
    7.7331    0.0000    0.0000 C   0  0  0  0  0  0  0  0  0  0  0  0
    4.2690   -4.0000    0.0000 C   0  0  0  0  0  0  0  0  0  0  0  0
    6.0010   -4.0000    0.0000 C   0  0  0  0  0  0  0  0  0  0  0  0
    8.5991    4.5000    0.0000 C   0  0  0  0  0  0  0  0  0  0  0  0
    5.1350   -4.5000    0.0000 C   0  0  0  0  0  0  0  0  0  0  0  0
   11.1972   -1.0000    0.0000 C   0  0  0  0  0  0  0  0  0  0  0  0
    9.4651   -1.0000    0.0000 C   0  0  0  0  0  0  0  0  0  0  0  0
    3.4030   -2.5000    0.0000 C   0  0  0  0  0  0  0  0  0  0  0  0
   12.0632   -0.5000    0.0000 C   0  0  0  0  0  0  0  0  0  0  0  0
   11.6972   -1.8660    0.0000 C   0  0  0  0  0  0  0  0  0  0  0  0
   10.6972   -0.1340    0.0000 C   0  0  0  0  0  0  0  0  0  0  0  0
    2.5369   -2.0000    0.0000 C   0  0  0  0  0  0  0  0  0  0  0  0
    5.1350   -0.8800    0.0000 H   0  0  0  0  0  0  0  0  0  0  0  0
    5.7890    0.5826    0.0000 H   0  0  0  0  0  0  0  0  0  0  0  0
    5.3905   -0.1077    0.0000 H   0  0  0  0  0  0  0  0  0  0  0  0
    7.0791   -0.0826    0.0000 H   0  0  0  0  0  0  0  0  0  0  0  0
    7.4776    0.6077    0.0000 H   0  0  0  0  0  0  0  0  0  0  0  0
    6.6550    2.0826    0.0000 H   0  0  0  0  0  0  0  0  0  0  0  0
    6.2565    1.3923    0.0000 H   0  0  0  0  0  0  0  0  0  0  0  0
    7.9451    1.4174    0.0000 H   0  0  0  0  0  0  0  0  0  0  0  0
    8.3437    2.1077    0.0000 H   0  0  0  0  0  0  0  0  0  0  0  0
    7.7331   -1.6200    0.0000 H   0  0  0  0  0  0  0  0  0  0  0  0
    4.8059    0.3100    0.0000 H   0  0  0  0  0  0  0  0  0  0  0  0
    7.5210    3.5826    0.0000 H   0  0  0  0  0  0  0  0  0  0  0  0
    7.1225    2.8923    0.0000 H   0  0  0  0  0  0  0  0  0  0  0  0
    2.8469    1.5369    0.0000 H   0  0  0  0  0  0  0  0  0  0  0  0
    2.0000    1.3100    0.0000 H   0  0  0  0  0  0  0  0  0  0  0  0
    2.2269    0.4631    0.0000 H   0  0  0  0  0  0  0  0  0  0  0  0
    4.4399    1.0560    0.0000 H   0  0  0  0  0  0  0  0  0  0  0  0
    4.2130    1.9030    0.0000 H   0  0  0  0  0  0  0  0  0  0  0  0
    3.3660    1.6760    0.0000 H   0  0  0  0  0  0  0  0  0  0  0  0
    2.3660   -0.0560    0.0000 H   0  0  0  0  0  0  0  0  0  0  0  0
    2.5930   -0.9030    0.0000 H   0  0  0  0  0  0  0  0  0  0  0  0
    3.4399   -0.6760    0.0000 H   0  0  0  0  0  0  0  0  0  0  0  0
    8.8112    2.9174    0.0000 H   0  0  0  0  0  0  0  0  0  0  0  0
    9.2097    3.6077    0.0000 H   0  0  0  0  0  0  0  0  0  0  0  0
    7.5210    0.5826    0.0000 H   0  0  0  0  0  0  0  0  0  0  0  0
    7.1225   -0.1077    0.0000 H   0  0  0  0  0  0  0  0  0  0  0  0
    6.5380   -2.6900    0.0000 H   0  0  0  0  0  0  0  0  0  0  0  0
    8.5991   -2.1200    0.0000 H   0  0  0  0  0  0  0  0  0  0  0  0
    3.7320   -4.3100    0.0000 H   0  0  0  0  0  0  0  0  0  0  0  0
    6.5380   -4.3100    0.0000 H   0  0  0  0  0  0  0  0  0  0  0  0
    9.2191    4.5000    0.0000 H   0  0  0  0  0  0  0  0  0  0  0  0
    8.5991    5.1200    0.0000 H   0  0  0  0  0  0  0  0  0  0  0  0
    7.9791    4.5000    0.0000 H   0  0  0  0  0  0  0  0  0  0  0  0
    5.1350   -5.1200    0.0000 H   0  0  0  0  0  0  0  0  0  0  0  0
    8.5991    1.1200    0.0000 H   0  0  0  0  0  0  0  0  0  0  0  0
   12.3732   -1.0369    0.0000 H   0  0  0  0  0  0  0  0  0  0  0  0
   12.6002   -0.1900    0.0000 H   0  0  0  0  0  0  0  0  0  0  0  0
   11.7532    0.0369    0.0000 H   0  0  0  0  0  0  0  0  0  0  0  0
   11.1603   -2.1760    0.0000 H   0  0  0  0  0  0  0  0  0  0  0  0
   12.0072   -2.4030    0.0000 H   0  0  0  0  0  0  0  0  0  0  0  0
   12.2341   -1.5560    0.0000 H   0  0  0  0  0  0  0  0  0  0  0  0
   11.2341    0.1760    0.0000 H   0  0  0  0  0  0  0  0  0  0  0  0
   10.3872    0.4030    0.0000 H   0  0  0  0  0  0  0  0  0  0  0  0
   10.1603   -0.4440    0.0000 H   0  0  0  0  0  0  0  0  0  0  0  0
    2.0000   -1.6900    0.0000 H   0  0  0  0  0  0  0  0  0  0  0  0
  1 15  2  0  0  0  0
  2 16  2  0  0  0  0
  3 31  1  0  0  0  0
  3 32  1  0  0  0  0
  4 26  1  0  0  0  0
  4 72  1  0  0  0  0
  5 32  2  0  0  0  0
  6  9  1  0  0  0  0
  6 10  1  0  0  0  0
  6 16  1  0  0  0  0
  7 13  1  0  0  0  0
  7 15  1  0  0  0  0
  7 48  1  0  0  0  0
  8 18  1  0  0  0  0
  8 32  1  0  0  0  0
  8 65  1  0  0  0  0
  9 15  1  0  0  0  0
  9 17  1  0  0  0  0
  9 38  1  0  0  0  0
 10 11  1  0  0  0  0
 10 39  1  0  0  0  0
 10 40  1  0  0  0  0
 11 12  1  0  0  0  0
 11 41  1  0  0  0  0
 11 42  1  0  0  0  0
 12 14  1  0  0  0  0
 12 43  1  0  0  0  0
 12 44  1  0  0  0  0
 13 20  1  0  0  0  0
 13 21  1  0  0  0  0
 13 22  1  0  0  0  0
 14 19  1  0  0  0  0
 14 45  1  0  0  0  0
 14 46  1  0  0  0  0
 16 18  1  0  0  0  0
 17 24  1  0  0  0  0
 17 25  2  0  0  0  0
 18 26  1  0  0  0  0
 18 47  1  0  0  0  0
 19 23  1  0  0  0  0
 19 49  1  0  0  0  0
 19 50  1  0  0  0  0
 20 51  1  0  0  0  0
 20 52  1  0  0  0  0
 20 53  1  0  0  0  0
 21 54  1  0  0  0  0
 21 55  1  0  0  0  0
 21 56  1  0  0  0  0
 22 57  1  0  0  0  0
 22 58  1  0  0  0  0
 22 59  1  0  0  0  0
 23 29  1  0  0  0  0
 23 60  1  0  0  0  0
 23 61  1  0  0  0  0
 24 27  2  0  0  0  0
 24 33  1  0  0  0  0
 25 28  1  0  0  0  0
 25 64  1  0  0  0  0
 26 62  1  0  0  0  0
 26 63  1  0  0  0  0
 27 30  1  0  0  0  0
 27 66  1  0  0  0  0
 28 30  2  0  0  0  0
 28 67  1  0  0  0  0
 29 68  1  0  0  0  0
 29 69  1  0  0  0  0
 29 70  1  0  0  0  0
 30 71  1  0  0  0  0
 31 34  1  0  0  0  0
 31 35  1  0  0  0  0
 31 36  1  0  0  0  0
 33 37  3  0  0  0  0
 34 73  1  0  0  0  0
 34 74  1  0  0  0  0
 34 75  1  0  0  0  0
 35 76  1  0  0  0  0
 35 77  1  0  0  0  0
 35 78  1  0  0  0  0
 36 79  1  0  0  0  0
 36 80  1  0  0  0  0
 36 81  1  0  0  0  0
 37 82  1  0  0  0  0
M  END
> <PUBCHEM_COMPOUND_CID>
18037434

> <PUBCHEM_COMPOUND_CANONICALIZED>
1

> <PUBCHEM_CACTVS_COMPLEXITY>
790

> <PUBCHEM_CACTVS_HBOND_ACCEPTOR>
5

> <PUBCHEM_CACTVS_HBOND_DONOR>
3

> <PUBCHEM_CACTVS_ROTATABLE_BOND>
16

> <PUBCHEM_CACTVS_SUBSKEYS>
AAADcfB7OAAAAAAAAAAAAAAAAAAAAAAAAAAwAAAAAAAAAAABAAAAHgAQCAAADOzhmAYyCIPABgDIGiFSGAiCAAAgAAAIiIGIBIkKcDaAlTGcYAhitgCYiAcYiICOgAAAAAAQAAAAAAAAACAAAAAAAAAAAA==

> <PUBCHEM_IUPAC_OPENEYE_NAME>
tert-butyl N-[2-[[2-(tert-butylamino)-1-(2-ethynylphenyl)-2-oxo-ethyl]-heptyl-amino]-1-(hydroxymethyl)-2-oxo-ethyl]carbamate

> <PUBCHEM_IUPAC_CAS_NAME>
N-[1-[[2-(tert-butylamino)-1-(2-ethynylphenyl)-2-oxoethyl]-heptylamino]-3-hydroxy-1-oxopropan-2-yl]carbamic acid tert-butyl ester

> <PUBCHEM_IUPAC_NAME_MARKUP>
<I>tert</I>-butyl <I>N</I>-[1-[[2-(<I>tert</I>-butylamino)-1-(2-ethynylphenyl)-2-oxoethyl]-heptylamino]-3-hydroxy-1-oxopropan-2-yl]carbamate

> <PUBCHEM_IUPAC_NAME>
tert-butyl N-[1-[[2-(tert-butylamino)-1-(2-ethynylphenyl)-2-oxoethyl]-heptylamino]-3-hydroxy-1-oxopropan-2-yl]carbamate

> <PUBCHEM_IUPAC_SYSTEMATIC_NAME>
tert-butyl N-[1-[[2-(tert-butylamino)-1-(2-ethynylphenyl)-2-oxidanylidene-ethyl]-heptyl-amino]-3-oxidanyl-1-oxidanylidene-propan-2-yl]carbamate

> <PUBCHEM_IUPAC_TRADITIONAL_NAME>
N-[2-[[2-(tert-butylamino)-1-(2-ethynylphenyl)-2-keto-ethyl]-heptyl-amino]-2-keto-1-methylol-ethyl]carbamic acid tert-butyl ester

> <PUBCHEM_IUPAC_INCHI>
InChI=1S/C29H45N3O5/c1-9-11-12-13-16-19-32(26(35)23(20-33)30-27(36)37-29(6,7)8)24(25(34)31-28(3,4)5)22-18-15-14-17-21(22)10-2/h2,14-15,17-18,23-24,33H,9,11-13,16,19-20H2,1,3-8H3,(H,30,36)(H,31,34)

> <PUBCHEM_IUPAC_INCHIKEY>
XDTSYPRNAPEQSB-UHFFFAOYSA-N

> <PUBCHEM_XLOGP3_AA>
5

> <PUBCHEM_EXACT_MASS>
515.33592154

> <PUBCHEM_MOLECULAR_FORMULA>
C29H45N3O5

> <PUBCHEM_MOLECULAR_WEIGHT>
515.7

> <PUBCHEM_OPENEYE_CAN_SMILES>
CCCCCCCN(C(C1=CC=CC=C1C#C)C(=O)NC(C)(C)C)C(=O)C(CO)NC(=O)OC(C)(C)C

> <PUBCHEM_OPENEYE_ISO_SMILES>
CCCCCCCN(C(C1=CC=CC=C1C#C)C(=O)NC(C)(C)C)C(=O)C(CO)NC(=O)OC(C)(C)C

> <PUBCHEM_CACTVS_TPSA>
108

> <PUBCHEM_MONOISOTOPIC_WEIGHT>
515.33592154

> <PUBCHEM_TOTAL_CHARGE>
0

> <PUBCHEM_HEAVY_ATOM_COUNT>
37

> <PUBCHEM_ATOM_DEF_STEREO_COUNT>
0

> <PUBCHEM_ATOM_UDEF_STEREO_COUNT>
2

> <PUBCHEM_BOND_DEF_STEREO_COUNT>
0

> <PUBCHEM_BOND_UDEF_STEREO_COUNT>
0

> <PUBCHEM_ISOTOPIC_ATOM_COUNT>
0

> <PUBCHEM_COMPONENT_COUNT>
1

> <PUBCHEM_CACTVS_TAUTO_COUNT>
-1

> <PUBCHEM_COORDINATE_TYPE>
1
5
255

> <PUBCHEM_BONDANNOTATIONS>
17  24  8
17  25  8
18  26  3
24  27  8
25  28  8
27  30  8
28  30  8
9  15  3

$$$$
