 
  -OEChem-10192104002D

 31 32  0     1  0  0  0  0  0999 V2000
    5.8687    2.0947    0.0000 O   0  0  0  0  0  0  0  0  0  0  0  0
    8.2454   -1.2287    0.0000 O   0  0  0  0  0  0  0  0  0  0  0  0
    3.7255    0.9165    0.0000 O   0  0  0  0  0  0  0  0  0  0  0  0
    8.8703    1.1033    0.0000 O   0  0  0  0  0  0  0  0  0  0  0  0
    4.5512   -1.3522    0.0000 O   0  0  0  0  0  0  0  0  0  0  0  0
    9.7454   -0.3627    0.0000 O   0  0  0  0  0  0  0  0  0  0  0  0
    2.9935   -0.6533    0.0000 O   0  0  0  0  0  0  0  0  0  0  0  0
    6.6053    1.1121    0.0000 C   0  0  3  0  0  0  0  0  0  0  0  0
    6.3465    0.1462    0.0000 C   0  0  1  0  0  0  0  0  0  0  0  0
    7.7454   -0.3627    0.0000 C   0  0  3  0  0  0  0  0  0  0  0  0
    4.6318    0.4938    0.0000 C   0  0  3  0  0  0  0  0  0  0  0  0
    8.0043    0.6033    0.0000 C   0  0  3  0  0  0  0  0  0  0  0  0
    4.9738   -0.4459    0.0000 C   0  0  2  0  0  0  0  0  0  0  0  0
    9.2454   -1.2287    0.0000 C   0  0  0  0  0  0  0  0  0  0  0  0
    2.9063    0.3429    0.0000 C   0  0  0  0  0  0  0  0  0  0  0  0
    9.7454   -2.0947    0.0000 C   0  0  0  0  0  0  0  0  0  0  0  0
    2.0000    0.7655    0.0000 C   0  0  0  0  0  0  0  0  0  0  0  0
    6.5913    0.4922    0.0000 H   0  0  0  0  0  0  0  0  0  0  0  0
    6.1265   -0.6749    0.0000 H   0  0  0  0  0  0  0  0  0  0  0  0
    7.3470   -0.8376    0.0000 H   0  0  0  0  0  0  0  0  0  0  0  0
    4.6729    1.1125    0.0000 H   0  0  0  0  0  0  0  0  0  0  0  0
    8.4961    0.2258    0.0000 H   0  0  0  0  0  0  0  0  0  0  0  0
    5.4058   -0.8906    0.0000 H   0  0  0  0  0  0  0  0  0  0  0  0
    8.8703    1.7233    0.0000 H   0  0  0  0  0  0  0  0  0  0  0  0
    3.9335   -1.4062    0.0000 H   0  0  0  0  0  0  0  0  0  0  0  0
    9.2085   -2.4047    0.0000 H   0  0  0  0  0  0  0  0  0  0  0  0
   10.0554   -2.6316    0.0000 H   0  0  0  0  0  0  0  0  0  0  0  0
   10.2824   -1.7847    0.0000 H   0  0  0  0  0  0  0  0  0  0  0  0
    2.2620    1.3274    0.0000 H   0  0  0  0  0  0  0  0  0  0  0  0
    1.4381    1.0275    0.0000 H   0  0  0  0  0  0  0  0  0  0  0  0
    1.7380    0.2036    0.0000 H   0  0  0  0  0  0  0  0  0  0  0  0
  1  8  1  0  0  0  0
  1  9  1  0  0  0  0
  2 10  1  0  0  0  0
  2 14  1  0  0  0  0
  3 11  1  0  0  0  0
  3 15  1  0  0  0  0
  4 12  1  0  0  0  0
  4 24  1  0  0  0  0
 13  5  1  1  0  0  0
  5 25  1  0  0  0  0
  6 14  2  0  0  0  0
  7 15  2  0  0  0  0
  8 11  1  0  0  0  0
  8 12  1  0  0  0  0
  8 18  1  0  0  0  0
  9 10  1  0  0  0  0
  9 13  1  0  0  0  0
  9 19  1  6  0  0  0
 10 12  1  0  0  0  0
 10 20  1  0  0  0  0
 11 13  1  0  0  0  0
 11 21  1  0  0  0  0
 12 22  1  0  0  0  0
 13 23  1  0  0  0  0
 14 16  1  0  0  0  0
 15 17  1  0  0  0  0
 16 26  1  0  0  0  0
 16 27  1  0  0  0  0
 16 28  1  0  0  0  0
 17 29  1  0  0  0  0
 17 30  1  0  0  0  0
 17 31  1  0  0  0  0
M  END
> <PUBCHEM_COMPOUND_CID>
60107245

> <PUBCHEM_COMPOUND_CANONICALIZED>
1

> <PUBCHEM_CACTVS_COMPLEXITY>
310

> <PUBCHEM_CACTVS_HBOND_ACCEPTOR>
7

> <PUBCHEM_CACTVS_HBOND_DONOR>
2

> <PUBCHEM_CACTVS_ROTATABLE_BOND>
4

> <PUBCHEM_CACTVS_SUBSKEYS>
AAADccBwOAAAAAAAAAAAAAAAAAAAASJAAAAwAAAAAAAAAAAAAAAAGgAACAAACBSggAICCAAABgAIAACQCAAAAAAAAAAAAAAAAAABEAIAAAACQAAFAAADAAHAYAwAAAAAAAAAAAACAAAQAACAAAAAAAAAAA==

> <PUBCHEM_IUPAC_OPENEYE_NAME>
[(1R,6R)-5-acetoxy-3,6-dihydroxy-7-oxabicyclo[2.2.1]heptan-2-yl] acetate

> <PUBCHEM_IUPAC_CAS_NAME>
acetic acid [(1R,6R)-5-acetyloxy-3,6-dihydroxy-7-oxabicyclo[2.2.1]heptan-2-yl] ester

> <PUBCHEM_IUPAC_NAME_MARKUP>
[(1<I>R</I>,6<I>R</I>)-5-acetyloxy-3,6-dihydroxy-7-oxabicyclo[2.2.1]heptan-2-yl] acetate

> <PUBCHEM_IUPAC_NAME>
[(1R,6R)-5-acetyloxy-3,6-dihydroxy-7-oxabicyclo[2.2.1]heptan-2-yl] acetate

> <PUBCHEM_IUPAC_SYSTEMATIC_NAME>
[(1R,6R)-5-acetyloxy-3,6-bis(oxidanyl)-7-oxabicyclo[2.2.1]heptan-2-yl] ethanoate

> <PUBCHEM_IUPAC_TRADITIONAL_NAME>
acetic acid [(1R,6R)-5-acetoxy-3,6-dihydroxy-7-oxabicyclo[2.2.1]heptan-2-yl] ester

> <PUBCHEM_IUPAC_INCHI>
InChI=1S/C10H14O7/c1-3(11)15-7-5(13)10-8(16-4(2)12)6(14)9(7)17-10/h5-10,13-14H,1-2H3/t5-,6?,7?,8?,9?,10+/m0/s1

> <PUBCHEM_IUPAC_INCHIKEY>
QNLNRSQYERNYGK-ITSPCKDYSA-N

> <PUBCHEM_XLOGP3_AA>
-1.6

> <PUBCHEM_EXACT_MASS>
246.07395278

> <PUBCHEM_MOLECULAR_FORMULA>
C10H14O7

> <PUBCHEM_MOLECULAR_WEIGHT>
246.21

> <PUBCHEM_OPENEYE_CAN_SMILES>
CC(=O)OC1C(C2C(C(C1O2)O)OC(=O)C)O

> <PUBCHEM_OPENEYE_ISO_SMILES>
CC(=O)OC1[C@@H]([C@@H]2C(C(C1O2)O)OC(=O)C)O

> <PUBCHEM_CACTVS_TPSA>
102

> <PUBCHEM_MONOISOTOPIC_WEIGHT>
246.07395278

> <PUBCHEM_TOTAL_CHARGE>
0

> <PUBCHEM_HEAVY_ATOM_COUNT>
17

> <PUBCHEM_ATOM_DEF_STEREO_COUNT>
2

> <PUBCHEM_ATOM_UDEF_STEREO_COUNT>
4

> <PUBCHEM_BOND_DEF_STEREO_COUNT>
0

> <PUBCHEM_BOND_UDEF_STEREO_COUNT>
0

> <PUBCHEM_ISOTOPIC_ATOM_COUNT>
0

> <PUBCHEM_COMPONENT_COUNT>
1

> <PUBCHEM_CACTVS_TAUTO_COUNT>
-1

> <PUBCHEM_COORDINATE_TYPE>
1
5
255

> <PUBCHEM_BONDANNOTATIONS>
8  1  3
10  2  3
11  3  3
12  4  3
13  5  5
9  19  6

$$$$
