 
  -OEChem-10192104162D

 57 59  0     1  0  0  0  0  0999 V2000
    6.8671   -1.3450    0.0000 O   0  0  0  0  0  0  0  0  0  0  0  0
    5.1350   -1.3450    0.0000 O   0  0  0  0  0  0  0  0  0  0  0  0
    6.8671    1.6550    0.0000 O   0  0  0  0  0  0  0  0  0  0  0  0
    5.1350   -0.3450    0.0000 O   0  0  0  0  0  0  0  0  0  0  0  0
    8.5991   -0.3450    0.0000 O   0  0  0  0  0  0  0  0  0  0  0  0
    6.8671   -3.3450    0.0000 O   0  0  0  0  0  0  0  0  0  0  0  0
    5.1350   -4.3450    0.0000 O   0  0  0  0  0  0  0  0  0  0  0  0
    8.5991    1.6550    0.0000 O   0  0  0  0  0  0  0  0  0  0  0  0
    3.4030   -3.3450    0.0000 O   0  0  0  0  0  0  0  0  0  0  0  0
    5.1350    2.6550    0.0000 O   0  0  0  0  0  0  0  0  0  0  0  0
    2.5369   -1.8450    0.0000 O   0  0  0  0  0  0  0  0  0  0  0  0
    7.7331    3.1550    0.0000 O   0  0  0  0  0  0  0  0  0  0  0  0
    6.8671   -0.3450    0.0000 C   0  0  1  0  0  0  0  0  0  0  0  0
    6.0010    0.1550    0.0000 C   0  0  2  0  0  0  0  0  0  0  0  0
    6.0010   -1.8450    0.0000 C   0  0  3  0  0  0  0  0  0  0  0  0
    7.7331    0.1550    0.0000 C   0  0  2  0  0  0  0  0  0  0  0  0
    6.0010   -2.8450    0.0000 C   0  0  1  0  0  0  0  0  0  0  0  0
    6.0010    1.1550    0.0000 C   0  0  1  0  0  0  0  0  0  0  0  0
    5.1350   -3.3450    0.0000 C   0  0  2  0  0  0  0  0  0  0  0  0
    4.2690   -2.8450    0.0000 C   0  0  2  0  0  0  0  0  0  0  0  0
    4.2690   -1.8450    0.0000 C   0  0  1  0  0  0  0  0  0  0  0  0
    7.7331    1.1550    0.0000 C   0  0  1  0  0  0  0  0  0  0  0  0
    5.1350    1.6550    0.0000 C   0  0  0  0  0  0  0  0  0  0  0  0
    3.4030   -1.3450    0.0000 C   0  0  0  0  0  0  0  0  0  0  0  0
    8.5991    2.6550    0.0000 C   0  0  0  0  0  0  0  0  0  0  0  0
    9.4651    3.1550    0.0000 C   0  0  0  0  0  0  0  0  0  0  0  0
    9.4651    4.1550    0.0000 C   0  0  0  0  0  0  0  0  0  0  0  0
   10.3312    2.6550    0.0000 C   0  0  0  0  0  0  0  0  0  0  0  0
   10.3312    4.6550    0.0000 C   0  0  0  0  0  0  0  0  0  0  0  0
   11.1972    3.1550    0.0000 C   0  0  0  0  0  0  0  0  0  0  0  0
   11.1972    4.1550    0.0000 C   0  0  0  0  0  0  0  0  0  0  0  0
    6.3301   -0.6550    0.0000 H   0  0  0  0  0  0  0  0  0  0  0  0
    6.0010   -0.4650    0.0000 H   0  0  0  0  0  0  0  0  0  0  0  0
    6.0010   -1.2250    0.0000 H   0  0  0  0  0  0  0  0  0  0  0  0
    7.7331   -0.4650    0.0000 H   0  0  0  0  0  0  0  0  0  0  0  0
    6.0010   -3.4650    0.0000 H   0  0  0  0  0  0  0  0  0  0  0  0
    6.0010    1.7750    0.0000 H   0  0  0  0  0  0  0  0  0  0  0  0
    4.5981   -3.6550    0.0000 H   0  0  0  0  0  0  0  0  0  0  0  0
    4.2690   -3.4650    0.0000 H   0  0  0  0  0  0  0  0  0  0  0  0
    4.2690   -1.2250    0.0000 H   0  0  0  0  0  0  0  0  0  0  0  0
    8.2700    0.8450    0.0000 H   0  0  0  0  0  0  0  0  0  0  0  0
    4.5244    1.7627    0.0000 H   0  0  0  0  0  0  0  0  0  0  0  0
    4.9230    1.0724    0.0000 H   0  0  0  0  0  0  0  0  0  0  0  0
    3.8015   -0.8701    0.0000 H   0  0  0  0  0  0  0  0  0  0  0  0
    3.0044   -0.8701    0.0000 H   0  0  0  0  0  0  0  0  0  0  0  0
    4.5981   -0.0350    0.0000 H   0  0  0  0  0  0  0  0  0  0  0  0
    9.1360   -0.0350    0.0000 H   0  0  0  0  0  0  0  0  0  0  0  0
    6.8671   -3.9650    0.0000 H   0  0  0  0  0  0  0  0  0  0  0  0
    4.5981   -4.6550    0.0000 H   0  0  0  0  0  0  0  0  0  0  0  0
    3.4030   -3.9650    0.0000 H   0  0  0  0  0  0  0  0  0  0  0  0
    4.5981    2.9650    0.0000 H   0  0  0  0  0  0  0  0  0  0  0  0
    2.0000   -1.5350    0.0000 H   0  0  0  0  0  0  0  0  0  0  0  0
    8.9282    4.4650    0.0000 H   0  0  0  0  0  0  0  0  0  0  0  0
   10.3312    2.0350    0.0000 H   0  0  0  0  0  0  0  0  0  0  0  0
   10.3312    5.2750    0.0000 H   0  0  0  0  0  0  0  0  0  0  0  0
   11.7341    2.8450    0.0000 H   0  0  0  0  0  0  0  0  0  0  0  0
   11.7341    4.4650    0.0000 H   0  0  0  0  0  0  0  0  0  0  0  0
 13  1  1  1  0  0  0
  1 15  1  0  0  0  0
  2 15  1  0  0  0  0
  2 21  1  0  0  0  0
  3 18  1  0  0  0  0
  3 22  1  0  0  0  0
 14  4  1  1  0  0  0
  4 46  1  0  0  0  0
 16  5  1  6  0  0  0
  5 47  1  0  0  0  0
 17  6  1  6  0  0  0
  6 48  1  0  0  0  0
 19  7  1  1  0  0  0
  7 49  1  0  0  0  0
 22  8  1  1  0  0  0
  8 25  1  0  0  0  0
 20  9  1  1  0  0  0
  9 50  1  0  0  0  0
 10 23  1  0  0  0  0
 10 51  1  0  0  0  0
 11 24  1  0  0  0  0
 11 52  1  0  0  0  0
 12 25  2  0  0  0  0
 13 14  1  0  0  0  0
 13 16  1  0  0  0  0
 13 32  1  0  0  0  0
 14 18  1  0  0  0  0
 14 33  1  0  0  0  0
 15 17  1  0  0  0  0
 15 34  1  0  0  0  0
 16 22  1  0  0  0  0
 16 35  1  0  0  0  0
 17 19  1  0  0  0  0
 17 36  1  0  0  0  0
 18 23  1  1  0  0  0
 18 37  1  0  0  0  0
 19 20  1  0  0  0  0
 19 38  1  0  0  0  0
 20 21  1  0  0  0  0
 20 39  1  0  0  0  0
 21 24  1  1  0  0  0
 21 40  1  0  0  0  0
 22 41  1  0  0  0  0
 23 42  1  0  0  0  0
 23 43  1  0  0  0  0
 24 44  1  0  0  0  0
 24 45  1  0  0  0  0
 25 26  1  0  0  0  0
 26 27  2  0  0  0  0
 26 28  1  0  0  0  0
 27 29  1  0  0  0  0
 27 53  1  0  0  0  0
 28 30  2  0  0  0  0
 28 54  1  0  0  0  0
 29 31  2  0  0  0  0
 29 55  1  0  0  0  0
 30 31  1  0  0  0  0
 30 56  1  0  0  0  0
 31 57  1  0  0  0  0
M  END
> <PUBCHEM_COMPOUND_CID>
70103876

> <PUBCHEM_COMPOUND_CANONICALIZED>
1

> <PUBCHEM_CACTVS_COMPLEXITY>
584

> <PUBCHEM_CACTVS_HBOND_ACCEPTOR>
12

> <PUBCHEM_CACTVS_HBOND_DONOR>
7

> <PUBCHEM_CACTVS_ROTATABLE_BOND>
7

> <PUBCHEM_CACTVS_SUBSKEYS>
AAADceB4PAAAAAAAAAAAAAAAAAAAAAAAAAA0SIAAAAAAAAABAAAAGgAACAAADBSwmAMwCIAABgCIAiDSCAACAAAkAAAIiAEACMgZNjKANRiicQAlwAEPqYfI6CyOAAAAAAAAAAAAAAAAAAAAAAAAAAAAAA==

> <PUBCHEM_IUPAC_OPENEYE_NAME>
[(2S,3R,4S,5S,6R)-3,5-dihydroxy-6-(hydroxymethyl)-4-[(3R,4S,5R,6R)-3,4,5-trihydroxy-6-(hydroxymethyl)tetrahydropyran-2-yl]oxy-tetrahydropyran-2-yl] benzoate

> <PUBCHEM_IUPAC_CAS_NAME>
benzoic acid [(2S,3R,4S,5S,6R)-3,5-dihydroxy-6-(hydroxymethyl)-4-[[(3R,4S,5R,6R)-3,4,5-trihydroxy-6-(hydroxymethyl)-2-oxanyl]oxy]-2-oxanyl] ester

> <PUBCHEM_IUPAC_NAME_MARKUP>
[(2<I>S</I>,3<I>R</I>,4<I>S</I>,5<I>S</I>,6<I>R</I>)-3,5-dihydroxy-6-(hydroxymethyl)-4-[(3<I>R</I>,4<I>S</I>,5<I>R</I>,6<I>R</I>)-3,4,5-trihydroxy-6-(hydroxymethyl)oxan-2-yl]oxyoxan-2-yl] benzoate

> <PUBCHEM_IUPAC_NAME>
[(2S,3R,4S,5S,6R)-3,5-dihydroxy-6-(hydroxymethyl)-4-[(3R,4S,5R,6R)-3,4,5-trihydroxy-6-(hydroxymethyl)oxan-2-yl]oxyoxan-2-yl] benzoate

> <PUBCHEM_IUPAC_SYSTEMATIC_NAME>
[(2S,3R,4S,5S,6R)-6-(hydroxymethyl)-4-[(3R,4S,5R,6R)-6-(hydroxymethyl)-3,4,5-tris(oxidanyl)oxan-2-yl]oxy-3,5-bis(oxidanyl)oxan-2-yl] benzoate

> <PUBCHEM_IUPAC_TRADITIONAL_NAME>
benzoic acid [(2S,3R,4S,5S,6R)-3,5-dihydroxy-6-methylol-4-[(3R,4S,5R,6R)-3,4,5-trihydroxy-6-methylol-tetrahydropyran-2-yl]oxy-tetrahydropyran-2-yl] ester

> <PUBCHEM_IUPAC_INCHI>
InChI=1S/C19H26O12/c20-6-9-11(22)13(24)14(25)18(28-9)30-16-12(23)10(7-21)29-19(15(16)26)31-17(27)8-4-2-1-3-5-8/h1-5,9-16,18-26H,6-7H2/t9-,10-,11+,12+,13+,14-,15-,16+,18?,19+/m1/s1

> <PUBCHEM_IUPAC_INCHIKEY>
BVHGZMDMKSTTIY-KZOWZRSGSA-N

> <PUBCHEM_XLOGP3_AA>
-2

> <PUBCHEM_EXACT_MASS>
446.14242626

> <PUBCHEM_MOLECULAR_FORMULA>
C19H26O12

> <PUBCHEM_MOLECULAR_WEIGHT>
446.4

> <PUBCHEM_OPENEYE_CAN_SMILES>
C1=CC=C(C=C1)C(=O)OC2C(C(C(C(O2)CO)O)OC3C(C(C(C(O3)CO)O)O)O)O

> <PUBCHEM_OPENEYE_ISO_SMILES>
C1=CC=C(C=C1)C(=O)O[C@H]2[C@@H]([C@H]([C@H]([C@H](O2)CO)O)OC3[C@@H]([C@H]([C@H]([C@H](O3)CO)O)O)O)O

> <PUBCHEM_CACTVS_TPSA>
196

> <PUBCHEM_MONOISOTOPIC_WEIGHT>
446.14242626

> <PUBCHEM_TOTAL_CHARGE>
0

> <PUBCHEM_HEAVY_ATOM_COUNT>
31

> <PUBCHEM_ATOM_DEF_STEREO_COUNT>
9

> <PUBCHEM_ATOM_UDEF_STEREO_COUNT>
1

> <PUBCHEM_BOND_DEF_STEREO_COUNT>
0

> <PUBCHEM_BOND_UDEF_STEREO_COUNT>
0

> <PUBCHEM_ISOTOPIC_ATOM_COUNT>
0

> <PUBCHEM_COMPONENT_COUNT>
1

> <PUBCHEM_CACTVS_TAUTO_COUNT>
-1

> <PUBCHEM_COORDINATE_TYPE>
1
5
255

> <PUBCHEM_BONDANNOTATIONS>
13  1  5
15  1  3
18  23  5
21  24  5
26  27  8
26  28  8
27  29  8
28  30  8
29  31  8
30  31  8
14  4  5
16  5  6
17  6  6
19  7  5
22  8  5
20  9  5

$$$$
