 
  -OEChem-10192103532D

 46 48  0     1  0  0  0  0  0999 V2000
    2.5619   -0.0000    0.0000 O   0  0  0  0  0  0  0  0  0  0  0  0
    5.9761   -0.0000    0.0000 O   0  0  0  0  0  0  0  0  0  0  0  0
    6.4761    0.8660    0.0000 O   0  0  0  0  0  0  0  0  0  0  0  0
    6.0010    1.7071    0.0000 O   0  0  0  0  0  0  0  0  0  0  0  0
    6.0010   -1.7071    0.0000 O   0  0  0  0  0  0  0  0  0  0  0  0
    2.5369   -1.7071    0.0000 O   0  0  0  0  0  0  0  0  0  0  0  0
    4.2690    4.7071    0.0000 O   0  0  0  0  0  0  0  0  0  0  0  0
    4.2690   -4.7071    0.0000 O   0  0  0  0  0  0  0  0  0  0  0  0
    4.2690    0.7071    0.0000 C   0  0  3  0  0  0  0  0  0  0  0  0
    4.2690   -0.7071    0.0000 C   0  0  3  0  0  0  0  0  0  0  0  0
    3.5619   -0.0000    0.0000 C   0  0  3  0  0  0  0  0  0  0  0  0
    4.9761   -0.0000    0.0000 C   0  0  3  0  0  0  0  0  0  0  0  0
    4.2690    1.7071    0.0000 C   0  0  0  0  0  0  0  0  0  0  0  0
    4.2690   -1.7071    0.0000 C   0  0  0  0  0  0  0  0  0  0  0  0
    3.4030    2.2071    0.0000 C   0  0  0  0  0  0  0  0  0  0  0  0
    5.1350    2.2071    0.0000 C   0  0  0  0  0  0  0  0  0  0  0  0
    5.1350   -2.2071    0.0000 C   0  0  0  0  0  0  0  0  0  0  0  0
    3.4030   -2.2071    0.0000 C   0  0  0  0  0  0  0  0  0  0  0  0
    2.0619    0.8660    0.0000 C   0  0  0  0  0  0  0  0  0  0  0  0
    3.4030    3.2071    0.0000 C   0  0  0  0  0  0  0  0  0  0  0  0
    5.1350    3.2071    0.0000 C   0  0  0  0  0  0  0  0  0  0  0  0
    2.5369    1.7071    0.0000 C   0  0  0  0  0  0  0  0  0  0  0  0
    5.1350   -3.2071    0.0000 C   0  0  0  0  0  0  0  0  0  0  0  0
    3.4030   -3.2071    0.0000 C   0  0  0  0  0  0  0  0  0  0  0  0
    4.2690    3.7071    0.0000 C   0  0  0  0  0  0  0  0  0  0  0  0
    4.2690   -3.7071    0.0000 C   0  0  0  0  0  0  0  0  0  0  0  0
    4.8418    0.9444    0.0000 H   0  0  0  0  0  0  0  0  0  0  0  0
    4.8418   -0.9444    0.0000 H   0  0  0  0  0  0  0  0  0  0  0  0
    3.3246   -0.5728    0.0000 H   0  0  0  0  0  0  0  0  0  0  0  0
    5.2134   -0.5728    0.0000 H   0  0  0  0  0  0  0  0  0  0  0  0
    2.5988    1.1760    0.0000 H   0  0  0  0  0  0  0  0  0  0  0  0
    1.7519    1.4030    0.0000 H   0  0  0  0  0  0  0  0  0  0  0  0
    1.5249    0.5560    0.0000 H   0  0  0  0  0  0  0  0  0  0  0  0
    2.8660    3.5171    0.0000 H   0  0  0  0  0  0  0  0  0  0  0  0
    5.6720    3.5171    0.0000 H   0  0  0  0  0  0  0  0  0  0  0  0
    2.2269    2.2440    0.0000 H   0  0  0  0  0  0  0  0  0  0  0  0
    2.0000    1.3971    0.0000 H   0  0  0  0  0  0  0  0  0  0  0  0
    2.8469    1.1702    0.0000 H   0  0  0  0  0  0  0  0  0  0  0  0
    5.6720   -3.5171    0.0000 H   0  0  0  0  0  0  0  0  0  0  0  0
    2.8660   -3.5171    0.0000 H   0  0  0  0  0  0  0  0  0  0  0  0
    7.0961    0.8660    0.0000 H   0  0  0  0  0  0  0  0  0  0  0  0
    6.5380    2.0171    0.0000 H   0  0  0  0  0  0  0  0  0  0  0  0
    6.5380   -2.0171    0.0000 H   0  0  0  0  0  0  0  0  0  0  0  0
    2.0000   -2.0171    0.0000 H   0  0  0  0  0  0  0  0  0  0  0  0
    3.7320    5.0171    0.0000 H   0  0  0  0  0  0  0  0  0  0  0  0
    3.7320   -5.0171    0.0000 H   0  0  0  0  0  0  0  0  0  0  0  0
  1 11  1  0  0  0  0
  1 19  1  0  0  0  0
  2  3  1  0  0  0  0
  2 12  1  0  0  0  0
  3 41  1  0  0  0  0
  4 16  1  0  0  0  0
  4 42  1  0  0  0  0
  5 17  1  0  0  0  0
  5 43  1  0  0  0  0
  6 18  1  0  0  0  0
  6 44  1  0  0  0  0
  7 25  1  0  0  0  0
  7 45  1  0  0  0  0
  8 26  1  0  0  0  0
  8 46  1  0  0  0  0
  9 11  1  0  0  0  0
  9 12  1  0  0  0  0
  9 13  1  0  0  0  0
  9 27  1  0  0  0  0
 10 11  1  0  0  0  0
 10 12  1  0  0  0  0
 10 14  1  0  0  0  0
 10 28  1  0  0  0  0
 11 29  1  0  0  0  0
 12 30  1  0  0  0  0
 13 15  1  0  0  0  0
 13 16  2  0  0  0  0
 14 17  2  0  0  0  0
 14 18  1  0  0  0  0
 15 20  2  0  0  0  0
 15 22  1  0  0  0  0
 16 21  1  0  0  0  0
 17 23  1  0  0  0  0
 18 24  2  0  0  0  0
 19 31  1  0  0  0  0
 19 32  1  0  0  0  0
 19 33  1  0  0  0  0
 20 25  1  0  0  0  0
 20 34  1  0  0  0  0
 21 25  2  0  0  0  0
 21 35  1  0  0  0  0
 22 36  1  0  0  0  0
 22 37  1  0  0  0  0
 22 38  1  0  0  0  0
 23 26  2  0  0  0  0
 23 39  1  0  0  0  0
 24 26  1  0  0  0  0
 24 40  1  0  0  0  0
M  END
> <PUBCHEM_COMPOUND_CID>
89342767

> <PUBCHEM_COMPOUND_CANONICALIZED>
1

> <PUBCHEM_CACTVS_COMPLEXITY>
464

> <PUBCHEM_CACTVS_HBOND_ACCEPTOR>
8

> <PUBCHEM_CACTVS_HBOND_DONOR>
6

> <PUBCHEM_CACTVS_ROTATABLE_BOND>
4

> <PUBCHEM_CACTVS_SUBSKEYS>
AAADceB4PAAAAAAAAAAAAAAAAABgAAAAAAAwYAAAAAAAAAABQAAAGgAADAAADRSgmAIyBoAABgCAAiBCAAACAAAgIAAAiAAGCIgIJyKCERKAcAAlwBUImAfA4PQOoAABCAAYAABAAAIQADAAAAAAAAAAAA==

> <PUBCHEM_IUPAC_OPENEYE_NAME>
2-[3-(2,4-dihydroxy-6-methyl-phenyl)-2-hydroperoxy-4-methoxy-cyclobutyl]benzene-1,3,5-triol

> <PUBCHEM_IUPAC_CAS_NAME>
2-[3-(2,4-dihydroxy-6-methylphenyl)-2-hydroperoxy-4-methoxycyclobutyl]benzene-1,3,5-triol

> <PUBCHEM_IUPAC_NAME_MARKUP>
2-[3-(2,4-dihydroxy-6-methylphenyl)-2-hydroperoxy-4-methoxycyclobutyl]benzene-1,3,5-triol

> <PUBCHEM_IUPAC_NAME>
2-[3-(2,4-dihydroxy-6-methylphenyl)-2-hydroperoxy-4-methoxycyclobutyl]benzene-1,3,5-triol

> <PUBCHEM_IUPAC_SYSTEMATIC_NAME>
2-[2-(dioxidanyl)-4-methoxy-3-[2-methyl-4,6-bis(oxidanyl)phenyl]cyclobutyl]benzene-1,3,5-triol

> <PUBCHEM_IUPAC_TRADITIONAL_NAME>
2-[3-(2,4-dihydroxy-6-methyl-phenyl)-2-hydroperoxy-4-methoxy-cyclobutyl]phloroglucinol

> <PUBCHEM_IUPAC_INCHI>
InChI=1S/C18H20O8/c1-7-3-8(19)4-10(21)13(7)15-17(25-2)16(18(15)26-24)14-11(22)5-9(20)6-12(14)23/h3-6,15-24H,1-2H3

> <PUBCHEM_IUPAC_INCHIKEY>
IIBIKHJMVQHFBD-UHFFFAOYSA-N

> <PUBCHEM_XLOGP3_AA>
1.4

> <PUBCHEM_EXACT_MASS>
364.11581759

> <PUBCHEM_MOLECULAR_FORMULA>
C18H20O8

> <PUBCHEM_MOLECULAR_WEIGHT>
364.3

> <PUBCHEM_OPENEYE_CAN_SMILES>
CC1=CC(=CC(=C1C2C(C(C2OO)C3=C(C=C(C=C3O)O)O)OC)O)O

> <PUBCHEM_OPENEYE_ISO_SMILES>
CC1=CC(=CC(=C1C2C(C(C2OO)C3=C(C=C(C=C3O)O)O)OC)O)O

> <PUBCHEM_CACTVS_TPSA>
140

> <PUBCHEM_MONOISOTOPIC_WEIGHT>
364.11581759

> <PUBCHEM_TOTAL_CHARGE>
0

> <PUBCHEM_HEAVY_ATOM_COUNT>
26

> <PUBCHEM_ATOM_DEF_STEREO_COUNT>
0

> <PUBCHEM_ATOM_UDEF_STEREO_COUNT>
4

> <PUBCHEM_BOND_DEF_STEREO_COUNT>
0

> <PUBCHEM_BOND_UDEF_STEREO_COUNT>
0

> <PUBCHEM_ISOTOPIC_ATOM_COUNT>
0

> <PUBCHEM_COMPONENT_COUNT>
1

> <PUBCHEM_CACTVS_TAUTO_COUNT>
-1

> <PUBCHEM_COORDINATE_TYPE>
1
5
255

> <PUBCHEM_BONDANNOTATIONS>
11  1  3
10  14  3
13  15  8
13  16  8
14  17  8
14  18  8
15  20  8
16  21  8
17  23  8
18  24  8
12  2  3
20  25  8
21  25  8
23  26  8
24  26  8
9  13  3

$$$$
