 
  -OEChem-10192103572D

 50 53  0     1  0  0  0  0  0999 V2000
    5.7172   -1.6106    0.0000 O   0  0  0  0  0  0  0  0  0  0  0  0
    4.0421    0.4771    0.0000 O   0  0  0  0  0  0  0  0  0  0  0  0
    4.8511   -3.1106    0.0000 O   0  0  0  0  0  0  0  0  0  0  0  0
    5.3511    1.4282    0.0000 O   0  0  0  0  0  0  0  0  0  0  0  0
    3.1191   -1.1106    0.0000 O   0  0  0  0  0  0  0  0  0  0  0  0
    3.1191   -4.1106    0.0000 O   0  0  0  0  0  0  0  0  0  0  0  0
    9.1813   -4.6106    0.0000 O   0  0  0  0  0  0  0  0  0  0  0  0
    2.0000    4.6643    0.0000 O   0  0  0  0  0  0  0  0  0  0  0  0
    4.8511   -1.1106    0.0000 C   0  0  2  0  0  0  0  0  0  0  0  0
    4.8511   -0.1107    0.0000 C   0  0  2  0  0  0  0  0  0  0  0  0
    3.9851   -1.6106    0.0000 C   0  0  1  0  0  0  0  0  0  0  0  0
    3.9851   -2.6106    0.0000 C   0  0  1  0  0  0  0  0  0  0  0  0
    5.6602    0.4771    0.0000 C   0  0  0  0  0  0  0  0  0  0  0  0
    5.7172   -2.6106    0.0000 C   0  0  3  0  0  0  0  0  0  0  0  0
    4.3511    1.4282    0.0000 C   0  0  3  0  0  0  0  0  0  0  0  0
    3.1191   -3.1106    0.0000 C   0  0  0  0  0  0  0  0  0  0  0  0
    6.5832   -3.1106    0.0000 C   0  0  0  0  0  0  0  0  0  0  0  0
    3.7634    2.2372    0.0000 C   0  0  0  0  0  0  0  0  0  0  0  0
    7.4492   -2.6106    0.0000 C   0  0  0  0  0  0  0  0  0  0  0  0
    6.5832   -4.1106    0.0000 C   0  0  0  0  0  0  0  0  0  0  0  0
    4.1701    3.1508    0.0000 C   0  0  0  0  0  0  0  0  0  0  0  0
    2.7688    2.1327    0.0000 C   0  0  0  0  0  0  0  0  0  0  0  0
    8.3152   -3.1106    0.0000 C   0  0  0  0  0  0  0  0  0  0  0  0
    7.4492   -4.6106    0.0000 C   0  0  0  0  0  0  0  0  0  0  0  0
    3.5823    3.9598    0.0000 C   0  0  0  0  0  0  0  0  0  0  0  0
    2.1810    2.9417    0.0000 C   0  0  0  0  0  0  0  0  0  0  0  0
    8.3152   -4.1106    0.0000 C   0  0  0  0  0  0  0  0  0  0  0  0
    2.5878    3.8552    0.0000 C   0  0  0  0  0  0  0  0  0  0  0  0
    5.5873   -0.6857    0.0000 H   0  0  0  0  0  0  0  0  0  0  0  0
    4.0938   -0.4965    0.0000 H   0  0  0  0  0  0  0  0  0  0  0  0
    3.4482   -1.9206    0.0000 H   0  0  0  0  0  0  0  0  0  0  0  0
    3.9851   -3.2306    0.0000 H   0  0  0  0  0  0  0  0  0  0  0  0
    5.9702   -0.0598    0.0000 H   0  0  0  0  0  0  0  0  0  0  0  0
    6.2266    0.7293    0.0000 H   0  0  0  0  0  0  0  0  0  0  0  0
    5.7172   -3.2306    0.0000 H   0  0  0  0  0  0  0  0  0  0  0  0
    4.6326    1.9806    0.0000 H   0  0  0  0  0  0  0  0  0  0  0  0
    2.9070   -2.5280    0.0000 H   0  0  0  0  0  0  0  0  0  0  0  0
    2.5085   -3.2183    0.0000 H   0  0  0  0  0  0  0  0  0  0  0  0
    2.5822   -1.4206    0.0000 H   0  0  0  0  0  0  0  0  0  0  0  0
    7.4492   -1.9906    0.0000 H   0  0  0  0  0  0  0  0  0  0  0  0
    6.0463   -4.4206    0.0000 H   0  0  0  0  0  0  0  0  0  0  0  0
    2.5822   -4.4206    0.0000 H   0  0  0  0  0  0  0  0  0  0  0  0
    4.7867    3.2156    0.0000 H   0  0  0  0  0  0  0  0  0  0  0  0
    2.5167    1.5663    0.0000 H   0  0  0  0  0  0  0  0  0  0  0  0
    8.8522   -2.8006    0.0000 H   0  0  0  0  0  0  0  0  0  0  0  0
    7.4492   -5.2306    0.0000 H   0  0  0  0  0  0  0  0  0  0  0  0
    3.8345    4.5262    0.0000 H   0  0  0  0  0  0  0  0  0  0  0  0
    1.5644    2.8769    0.0000 H   0  0  0  0  0  0  0  0  0  0  0  0
    9.1813   -5.2306    0.0000 H   0  0  0  0  0  0  0  0  0  0  0  0
    2.2522    5.2306    0.0000 H   0  0  0  0  0  0  0  0  0  0  0  0
  1  9  1  0  0  0  0
  1 14  1  0  0  0  0
  2 10  1  0  0  0  0
  2 15  1  0  0  0  0
  3 12  1  0  0  0  0
  3 14  1  0  0  0  0
  4 13  1  0  0  0  0
  4 15  1  0  0  0  0
 11  5  1  1  0  0  0
  5 39  1  0  0  0  0
  6 16  1  0  0  0  0
  6 42  1  0  0  0  0
  7 27  1  0  0  0  0
  7 49  1  0  0  0  0
  8 28  1  0  0  0  0
  8 50  1  0  0  0  0
  9 10  1  0  0  0  0
  9 11  1  0  0  0  0
  9 29  1  6  0  0  0
 10 13  1  0  0  0  0
 10 30  1  6  0  0  0
 11 12  1  0  0  0  0
 11 31  1  0  0  0  0
 12 16  1  6  0  0  0
 12 32  1  0  0  0  0
 13 33  1  0  0  0  0
 13 34  1  0  0  0  0
 14 17  1  0  0  0  0
 14 35  1  0  0  0  0
 15 18  1  0  0  0  0
 15 36  1  0  0  0  0
 16 37  1  0  0  0  0
 16 38  1  0  0  0  0
 17 19  2  0  0  0  0
 17 20  1  0  0  0  0
 18 21  2  0  0  0  0
 18 22  1  0  0  0  0
 19 23  1  0  0  0  0
 19 40  1  0  0  0  0
 20 24  2  0  0  0  0
 20 41  1  0  0  0  0
 21 25  1  0  0  0  0
 21 43  1  0  0  0  0
 22 26  2  0  0  0  0
 22 44  1  0  0  0  0
 23 27  2  0  0  0  0
 23 45  1  0  0  0  0
 24 27  1  0  0  0  0
 24 46  1  0  0  0  0
 25 28  2  0  0  0  0
 25 47  1  0  0  0  0
 26 28  1  0  0  0  0
 26 48  1  0  0  0  0
M  END
> <PUBCHEM_COMPOUND_CID>
101530051

> <PUBCHEM_COMPOUND_CANONICALIZED>
1

> <PUBCHEM_CACTVS_COMPLEXITY>
489

> <PUBCHEM_CACTVS_HBOND_ACCEPTOR>
8

> <PUBCHEM_CACTVS_HBOND_DONOR>
4

> <PUBCHEM_CACTVS_ROTATABLE_BOND>
4

> <PUBCHEM_CACTVS_SUBSKEYS>
AAADceB4PAAAAAAAAAAAAAAAAAAAASAAAAA0YIAAAAAAAAABQAAAGgAACAAADBSwmAMwDoAABgCAAiBCAAACAAAgIAAIiAAGCIgZNiKCMRqicAAlwBEPuAfA4CwOIAAAAAAAAABAAAAAAAAAAAAAAAAAAA==

> <PUBCHEM_IUPAC_OPENEYE_NAME>
(4R,5R,6S)-4-(hydroxymethyl)-2-(4-hydroxyphenyl)-6-[(4S)-2-(4-hydroxyphenyl)-1,3-dioxolan-4-yl]-1,3-dioxan-5-ol

> <PUBCHEM_IUPAC_CAS_NAME>
(4R,5R,6S)-4-(hydroxymethyl)-2-(4-hydroxyphenyl)-6-[(4S)-2-(4-hydroxyphenyl)-1,3-dioxolan-4-yl]-1,3-dioxan-5-ol

> <PUBCHEM_IUPAC_NAME_MARKUP>
(4<I>R</I>,5<I>R</I>,6<I>S</I>)-4-(hydroxymethyl)-2-(4-hydroxyphenyl)-6-[(4<I>S</I>)-2-(4-hydroxyphenyl)-1,3-dioxolan-4-yl]-1,3-dioxan-5-ol

> <PUBCHEM_IUPAC_NAME>
(4R,5R,6S)-4-(hydroxymethyl)-2-(4-hydroxyphenyl)-6-[(4S)-2-(4-hydroxyphenyl)-1,3-dioxolan-4-yl]-1,3-dioxan-5-ol

> <PUBCHEM_IUPAC_SYSTEMATIC_NAME>
(4R,5R,6S)-4-(hydroxymethyl)-2-(4-hydroxyphenyl)-6-[(4S)-2-(4-hydroxyphenyl)-1,3-dioxolan-4-yl]-1,3-dioxan-5-ol

> <PUBCHEM_IUPAC_TRADITIONAL_NAME>
(4S,5R,6R)-2-(4-hydroxyphenyl)-4-[(4S)-2-(4-hydroxyphenyl)-1,3-dioxolan-4-yl]-6-methylol-1,3-dioxan-5-ol

> <PUBCHEM_IUPAC_INCHI>
InChI=1S/C20H22O8/c21-9-15-17(24)18(28-20(26-15)12-3-7-14(23)8-4-12)16-10-25-19(27-16)11-1-5-13(22)6-2-11/h1-8,15-24H,9-10H2/t15-,16+,17-,18-,19?,20?/m1/s1

> <PUBCHEM_IUPAC_INCHIKEY>
LJPPUCOVIYYVKV-VVBFYGJXSA-N

> <PUBCHEM_XLOGP3_AA>
1.2

> <PUBCHEM_EXACT_MASS>
390.13146766

> <PUBCHEM_MOLECULAR_FORMULA>
C20H22O8

> <PUBCHEM_MOLECULAR_WEIGHT>
390.4

> <PUBCHEM_OPENEYE_CAN_SMILES>
C1C(OC(O1)C2=CC=C(C=C2)O)C3C(C(OC(O3)C4=CC=C(C=C4)O)CO)O

> <PUBCHEM_OPENEYE_ISO_SMILES>
C1[C@H](OC(O1)C2=CC=C(C=C2)O)[C@@H]3[C@@H]([C@H](OC(O3)C4=CC=C(C=C4)O)CO)O

> <PUBCHEM_CACTVS_TPSA>
118

> <PUBCHEM_MONOISOTOPIC_WEIGHT>
390.13146766

> <PUBCHEM_TOTAL_CHARGE>
0

> <PUBCHEM_HEAVY_ATOM_COUNT>
28

> <PUBCHEM_ATOM_DEF_STEREO_COUNT>
4

> <PUBCHEM_ATOM_UDEF_STEREO_COUNT>
2

> <PUBCHEM_BOND_DEF_STEREO_COUNT>
0

> <PUBCHEM_BOND_UDEF_STEREO_COUNT>
0

> <PUBCHEM_ISOTOPIC_ATOM_COUNT>
0

> <PUBCHEM_COMPONENT_COUNT>
1

> <PUBCHEM_CACTVS_TAUTO_COUNT>
-1

> <PUBCHEM_COORDINATE_TYPE>
1
5
255

> <PUBCHEM_BONDANNOTATIONS>
10  30  6
12  16  6
14  17  3
15  18  3
17  19  8
17  20  8
18  21  8
18  22  8
19  23  8
20  24  8
21  25  8
22  26  8
23  27  8
24  27  8
25  28  8
26  28  8
11  5  5
9  29  6

$$$$
