 
  -OEChem-10192104112D

 21 22  0     0  0  0  0  0  0999 V2000
    2.8660   -1.1900    0.0000 P   0  0  0  0  0  0  0  0  0  0  0  0
    2.0000   -1.6900    0.0000 O   0  0  0  0  0  0  0  0  0  0  0  0
    3.3660   -2.0560    0.0000 O   0  0  0  0  0  0  0  0  0  0  0  0
    2.3660   -0.3240    0.0000 O   0  0  0  0  0  0  0  0  0  0  0  0
    2.8660    0.8100    0.0000 N   0  0  0  0  0  0  0  0  0  0  0  0
    5.5443    0.5053    0.0000 N   0  0  0  0  0  0  0  0  0  0  0  0
    3.7320    2.3100    0.0000 N   0  0  0  0  0  0  0  0  0  0  0  0
    6.1279    1.3100    0.0000 N   0  0  0  0  0  0  0  0  0  0  0  0
    3.7320   -0.6900    0.0000 C   0  0  0  0  0  0  0  0  0  0  0  0
    3.7320    0.3100    0.0000 C   0  0  0  0  0  0  0  0  0  0  0  0
    4.5981    0.8100    0.0000 C   0  0  0  0  0  0  0  0  0  0  0  0
    4.5981    1.8100    0.0000 C   0  0  0  0  0  0  0  0  0  0  0  0
    5.5443    2.1147    0.0000 C   0  0  0  0  0  0  0  0  0  0  0  0
    2.8660    1.8100    0.0000 C   0  0  0  0  0  0  0  0  0  0  0  0
    3.9441   -1.2726    0.0000 H   0  0  0  0  0  0  0  0  0  0  0  0
    4.3426   -0.5823    0.0000 H   0  0  0  0  0  0  0  0  0  0  0  0
    6.0817    2.4240    0.0000 H   0  0  0  0  0  0  0  0  0  0  0  0
    5.2933    2.6816    0.0000 H   0  0  0  0  0  0  0  0  0  0  0  0
    2.3291    2.1200    0.0000 H   0  0  0  0  0  0  0  0  0  0  0  0
    2.0000   -2.3100    0.0000 H   0  0  0  0  0  0  0  0  0  0  0  0
    3.9860   -2.0560    0.0000 H   0  0  0  0  0  0  0  0  0  0  0  0
  1  2  1  0  0  0  0
  1  3  1  0  0  0  0
  1  4  2  0  0  0  0
  1  9  1  0  0  0  0
  2 20  1  0  0  0  0
  3 21  1  0  0  0  0
  5 10  2  0  0  0  0
  5 14  1  0  0  0  0
  6  8  2  0  0  0  0
  6 11  1  0  0  0  0
  7 12  1  0  0  0  0
  7 14  2  0  0  0  0
  8 13  1  0  0  0  0
  9 10  1  0  0  0  0
  9 15  1  0  0  0  0
  9 16  1  0  0  0  0
 10 11  1  0  0  0  0
 11 12  2  0  0  0  0
 12 13  1  0  0  0  0
 13 17  1  0  0  0  0
 13 18  1  0  0  0  0
 14 19  1  0  0  0  0
M  END
> <PUBCHEM_COMPOUND_CID>
89432526

> <PUBCHEM_COMPOUND_CANONICALIZED>
1

> <PUBCHEM_CACTVS_COMPLEXITY>
291

> <PUBCHEM_CACTVS_HBOND_ACCEPTOR>
7

> <PUBCHEM_CACTVS_HBOND_DONOR>
2

> <PUBCHEM_CACTVS_ROTATABLE_BOND>
2

> <PUBCHEM_CACTVS_SUBSKEYS>
AAADcYBjsAIAAAAAAAAAAAAAAAAAAQAAAAAsAAAAAAAAAEABgAAAHAgICCAACAjJFgQF0JYIEBCiQQRhZICAgCkxEKABWCA4VBiAaAJAyNEUBAhoAAJISCIQAAAAAAAAAAAAAAAAAAAAAAAAAAAAAAAAAA==

> <PUBCHEM_IUPAC_OPENEYE_NAME>
3H-pyrazolo[4,3-d]pyrimidin-7-ylmethylphosphonic acid

> <PUBCHEM_IUPAC_CAS_NAME>
3H-pyrazolo[4,3-d]pyrimidin-7-ylmethylphosphonic acid

> <PUBCHEM_IUPAC_NAME_MARKUP>
3<I>H</I>-pyrazolo[4,3-d]pyrimidin-7-ylmethylphosphonic acid

> <PUBCHEM_IUPAC_NAME>
3H-pyrazolo[4,3-d]pyrimidin-7-ylmethylphosphonic acid

> <PUBCHEM_IUPAC_SYSTEMATIC_NAME>
3H-pyrazolo[4,3-d]pyrimidin-7-ylmethylphosphonic acid

> <PUBCHEM_IUPAC_TRADITIONAL_NAME>
3H-pyrazolo[4,3-d]pyrimidin-7-ylmethylphosphonic acid

> <PUBCHEM_IUPAC_INCHI>
InChI=1S/C6H7N4O3P/c11-14(12,13)2-5-6-4(1-9-10-6)7-3-8-5/h3H,1-2H2,(H2,11,12,13)

> <PUBCHEM_IUPAC_INCHIKEY>
GCEANABGDICKCN-UHFFFAOYSA-N

> <PUBCHEM_XLOGP3_AA>
-2

> <PUBCHEM_EXACT_MASS>
214.02557710

> <PUBCHEM_MOLECULAR_FORMULA>
C6H7N4O3P

> <PUBCHEM_MOLECULAR_WEIGHT>
214.12

> <PUBCHEM_OPENEYE_CAN_SMILES>
C1C2=C(C(=NC=N2)CP(=O)(O)O)N=N1

> <PUBCHEM_OPENEYE_ISO_SMILES>
C1C2=C(C(=NC=N2)CP(=O)(O)O)N=N1

> <PUBCHEM_CACTVS_TPSA>
108

> <PUBCHEM_MONOISOTOPIC_WEIGHT>
214.02557710

> <PUBCHEM_TOTAL_CHARGE>
0

> <PUBCHEM_HEAVY_ATOM_COUNT>
14

> <PUBCHEM_ATOM_DEF_STEREO_COUNT>
0

> <PUBCHEM_ATOM_UDEF_STEREO_COUNT>
0

> <PUBCHEM_BOND_DEF_STEREO_COUNT>
0

> <PUBCHEM_BOND_UDEF_STEREO_COUNT>
0

> <PUBCHEM_ISOTOPIC_ATOM_COUNT>
0

> <PUBCHEM_COMPONENT_COUNT>
1

> <PUBCHEM_CACTVS_TAUTO_COUNT>
-1

> <PUBCHEM_COORDINATE_TYPE>
1
5
255

> <PUBCHEM_BONDANNOTATIONS>
10  11  8
11  12  8
5  10  8
5  14  8
7  12  8
7  14  8

$$$$
