 
  -OEChem-10192103502D

 78 78  0     1  0  0  0  0  0999 V2000
   11.1906    0.2499    0.0000 O   0  0  0  0  0  0  0  0  0  0  0  0
   11.1906    1.9819    0.0000 O   0  0  0  0  0  0  0  0  0  0  0  0
    5.4128   -4.8196    0.0000 O   0  0  0  0  0  0  0  0  0  0  0  0
    6.7670   -3.7397    0.0000 O   0  0  0  0  0  0  0  0  0  0  0  0
    9.6906   -0.6161    0.0000 O   0  0  0  0  0  0  0  0  0  0  0  0
    9.6906    2.8480    0.0000 O   0  0  0  0  0  0  0  0  0  0  0  0
    3.8005   -4.1868    0.0000 O   0  0  0  0  0  0  0  0  0  0  0  0
    6.5089   -2.0270    0.0000 O   0  0  0  0  0  0  0  0  0  0  0  0
    4.1906    3.7140    0.0000 C   0  0  3  0  0  0  0  0  0  0  0  0
    3.7568    2.8130    0.0000 C   0  0  3  0  0  0  0  0  0  0  0  0
    3.7568    4.6150    0.0000 C   0  0  3  0  0  0  0  0  0  0  0  0
    2.7818    2.5905    0.0000 C   0  0  0  0  0  0  0  0  0  0  0  0
    2.7818    4.8375    0.0000 C   0  0  0  0  0  0  0  0  0  0  0  0
    5.1906    3.7140    0.0000 C   0  0  0  0  0  0  0  0  0  0  0  0
    4.3802    2.0312    0.0000 C   0  0  0  0  0  0  0  0  0  0  0  0
    2.0000    3.2140    0.0000 C   0  0  0  0  0  0  0  0  0  0  0  0
    2.0000    4.2140    0.0000 C   0  0  0  0  0  0  0  0  0  0  0  0
    4.3802    5.3968    0.0000 C   0  0  0  0  0  0  0  0  0  0  0  0
    5.6906    2.8480    0.0000 C   0  0  0  0  0  0  0  0  0  0  0  0
    4.0149    1.1003    0.0000 C   0  0  0  0  0  0  0  0  0  0  0  0
    6.6906    2.8480    0.0000 C   0  0  0  0  0  0  0  0  0  0  0  0
    4.6384    0.3185    0.0000 C   0  0  0  0  0  0  0  0  0  0  0  0
    7.1906    1.9819    0.0000 C   0  0  0  0  0  0  0  0  0  0  0  0
    4.2731   -0.6124    0.0000 C   0  0  0  0  0  0  0  0  0  0  0  0
    8.1906    1.9819    0.0000 C   0  0  0  0  0  0  0  0  0  0  0  0
    4.8966   -1.3942    0.0000 C   0  0  0  0  0  0  0  0  0  0  0  0
    8.6906    1.1159    0.0000 C   0  0  0  0  0  0  0  0  0  0  0  0
    4.5312   -2.3251    0.0000 C   0  0  0  0  0  0  0  0  0  0  0  0
    9.6906    1.1159    0.0000 C   0  0  0  0  0  0  0  0  0  0  0  0
    5.1547   -3.1069    0.0000 C   0  0  0  0  0  0  0  0  0  0  0  0
   10.1906    0.2499    0.0000 C   0  0  0  0  0  0  0  0  0  0  0  0
   10.1906    1.9819    0.0000 C   0  0  0  0  0  0  0  0  0  0  0  0
    4.7894   -4.0378    0.0000 C   0  0  0  0  0  0  0  0  0  0  0  0
    6.1435   -2.9579    0.0000 C   0  0  0  0  0  0  0  0  0  0  0  0
    4.5205    4.2390    0.0000 H   0  0  0  0  0  0  0  0  0  0  0  0
    4.3729    2.8824    0.0000 H   0  0  0  0  0  0  0  0  0  0  0  0
    3.5520    5.2002    0.0000 H   0  0  0  0  0  0  0  0  0  0  0  0
    2.2971    2.2039    0.0000 H   0  0  0  0  0  0  0  0  0  0  0  0
    3.0508    2.0319    0.0000 H   0  0  0  0  0  0  0  0  0  0  0  0
    3.0508    5.3961    0.0000 H   0  0  0  0  0  0  0  0  0  0  0  0
    2.2971    5.2240    0.0000 H   0  0  0  0  0  0  0  0  0  0  0  0
    5.7732    3.9260    0.0000 H   0  0  0  0  0  0  0  0  0  0  0  0
    5.0830    4.3246    0.0000 H   0  0  0  0  0  0  0  0  0  0  0  0
    4.9093    1.7079    0.0000 H   0  0  0  0  0  0  0  0  0  0  0  0
    4.7905    2.4960    0.0000 H   0  0  0  0  0  0  0  0  0  0  0  0
    1.3955    3.3519    0.0000 H   0  0  0  0  0  0  0  0  0  0  0  0
    1.7310    2.6554    0.0000 H   0  0  0  0  0  0  0  0  0  0  0  0
    1.7310    4.7726    0.0000 H   0  0  0  0  0  0  0  0  0  0  0  0
    1.3955    4.0760    0.0000 H   0  0  0  0  0  0  0  0  0  0  0  0
    4.8650    5.0102    0.0000 H   0  0  0  0  0  0  0  0  0  0  0  0
    4.7668    5.8815    0.0000 H   0  0  0  0  0  0  0  0  0  0  0  0
    3.8955    5.7834    0.0000 H   0  0  0  0  0  0  0  0  0  0  0  0
    5.1080    2.6359    0.0000 H   0  0  0  0  0  0  0  0  0  0  0  0
    5.7983    2.2374    0.0000 H   0  0  0  0  0  0  0  0  0  0  0  0
    3.4859    1.4236    0.0000 H   0  0  0  0  0  0  0  0  0  0  0  0
    3.6047    0.6354    0.0000 H   0  0  0  0  0  0  0  0  0  0  0  0
    7.2732    3.0600    0.0000 H   0  0  0  0  0  0  0  0  0  0  0  0
    6.5830    3.4585    0.0000 H   0  0  0  0  0  0  0  0  0  0  0  0
    5.1674   -0.0048    0.0000 H   0  0  0  0  0  0  0  0  0  0  0  0
    5.0486    0.7833    0.0000 H   0  0  0  0  0  0  0  0  0  0  0  0
    6.6080    1.7699    0.0000 H   0  0  0  0  0  0  0  0  0  0  0  0
    7.2983    1.3714    0.0000 H   0  0  0  0  0  0  0  0  0  0  0  0
    3.7440   -0.2891    0.0000 H   0  0  0  0  0  0  0  0  0  0  0  0
    3.8628   -1.0773    0.0000 H   0  0  0  0  0  0  0  0  0  0  0  0
    8.7733    2.1940    0.0000 H   0  0  0  0  0  0  0  0  0  0  0  0
    8.0830    2.5925    0.0000 H   0  0  0  0  0  0  0  0  0  0  0  0
    5.4256   -1.7175    0.0000 H   0  0  0  0  0  0  0  0  0  0  0  0
    5.3068   -0.9294    0.0000 H   0  0  0  0  0  0  0  0  0  0  0  0
    8.1080    0.9039    0.0000 H   0  0  0  0  0  0  0  0  0  0  0  0
    8.7983    0.5053    0.0000 H   0  0  0  0  0  0  0  0  0  0  0  0
    4.0022   -2.0018    0.0000 H   0  0  0  0  0  0  0  0  0  0  0  0
    4.1210   -2.7900    0.0000 H   0  0  0  0  0  0  0  0  0  0  0  0
    9.3806    1.6528    0.0000 H   0  0  0  0  0  0  0  0  0  0  0  0
    5.5413   -3.5917    0.0000 H   0  0  0  0  0  0  0  0  0  0  0  0
   11.5006   -0.2871    0.0000 H   0  0  0  0  0  0  0  0  0  0  0  0
   11.5006    2.5189    0.0000 H   0  0  0  0  0  0  0  0  0  0  0  0
    5.1863   -5.3968    0.0000 H   0  0  0  0  0  0  0  0  0  0  0  0
    7.3801   -3.6473    0.0000 H   0  0  0  0  0  0  0  0  0  0  0  0
  1 31  1  0  0  0  0
  1 75  1  0  0  0  0
  2 32  1  0  0  0  0
  2 76  1  0  0  0  0
  3 33  1  0  0  0  0
  3 77  1  0  0  0  0
  4 34  1  0  0  0  0
  4 78  1  0  0  0  0
  5 31  2  0  0  0  0
  6 32  2  0  0  0  0
  7 33  2  0  0  0  0
  8 34  2  0  0  0  0
  9 10  1  0  0  0  0
  9 11  1  0  0  0  0
  9 14  1  0  0  0  0
  9 35  1  0  0  0  0
 10 12  1  0  0  0  0
 10 15  1  0  0  0  0
 10 36  1  0  0  0  0
 11 13  1  0  0  0  0
 11 18  1  0  0  0  0
 11 37  1  0  0  0  0
 12 16  1  0  0  0  0
 12 38  1  0  0  0  0
 12 39  1  0  0  0  0
 13 17  1  0  0  0  0
 13 40  1  0  0  0  0
 13 41  1  0  0  0  0
 14 19  1  0  0  0  0
 14 42  1  0  0  0  0
 14 43  1  0  0  0  0
 15 20  1  0  0  0  0
 15 44  1  0  0  0  0
 15 45  1  0  0  0  0
 16 17  1  0  0  0  0
 16 46  1  0  0  0  0
 16 47  1  0  0  0  0
 17 48  1  0  0  0  0
 17 49  1  0  0  0  0
 18 50  1  0  0  0  0
 18 51  1  0  0  0  0
 18 52  1  0  0  0  0
 19 21  1  0  0  0  0
 19 53  1  0  0  0  0
 19 54  1  0  0  0  0
 20 22  1  0  0  0  0
 20 55  1  0  0  0  0
 20 56  1  0  0  0  0
 21 23  1  0  0  0  0
 21 57  1  0  0  0  0
 21 58  1  0  0  0  0
 22 24  1  0  0  0  0
 22 59  1  0  0  0  0
 22 60  1  0  0  0  0
 23 25  1  0  0  0  0
 23 61  1  0  0  0  0
 23 62  1  0  0  0  0
 24 26  1  0  0  0  0
 24 63  1  0  0  0  0
 24 64  1  0  0  0  0
 25 27  1  0  0  0  0
 25 65  1  0  0  0  0
 25 66  1  0  0  0  0
 26 28  1  0  0  0  0
 26 67  1  0  0  0  0
 26 68  1  0  0  0  0
 27 29  1  0  0  0  0
 27 69  1  0  0  0  0
 27 70  1  0  0  0  0
 28 30  1  0  0  0  0
 28 71  1  0  0  0  0
 28 72  1  0  0  0  0
 29 31  1  0  0  0  0
 29 32  1  0  0  0  0
 29 73  1  0  0  0  0
 30 33  1  0  0  0  0
 30 34  1  0  0  0  0
 30 74  1  0  0  0  0
M  END
> <PUBCHEM_COMPOUND_CID>
68417694

> <PUBCHEM_COMPOUND_CANONICALIZED>
1

> <PUBCHEM_CACTVS_COMPLEXITY>
619

> <PUBCHEM_CACTVS_HBOND_ACCEPTOR>
8

> <PUBCHEM_CACTVS_HBOND_DONOR>
4

> <PUBCHEM_CACTVS_ROTATABLE_BOND>
18

> <PUBCHEM_CACTVS_SUBSKEYS>
AAADcfB4PAAAAAAAAAAAAAAAAAAAAAAAAAAAAAAABgAAAAAAAAAAGgAACAAADQCAgAACCAAAAgAIAACQCAAAAAAAAAAAAAEAAAAAABYIAAAAQAAFIAAAAAGIyOCOgAAAAAAAAAAAAAAAAAAAAAAAAAAAAA==

> <PUBCHEM_IUPAC_OPENEYE_NAME>
2-[6-[2-(7,7-dicarboxyheptyl)-3-methyl-cycloheptyl]hexyl]propanedioic acid

> <PUBCHEM_IUPAC_CAS_NAME>
2-[6-[2-(7,7-dicarboxyheptyl)-3-methylcycloheptyl]hexyl]propanedioic acid

> <PUBCHEM_IUPAC_NAME_MARKUP>
2-[6-[2-(7,7-dicarboxyheptyl)-3-methylcycloheptyl]hexyl]propanedioic acid

> <PUBCHEM_IUPAC_NAME>
2-[6-[2-(7,7-dicarboxyheptyl)-3-methylcycloheptyl]hexyl]propanedioic acid

> <PUBCHEM_IUPAC_SYSTEMATIC_NAME>
2-[6-[2-(7-carboxy-8-oxidanyl-8-oxidanylidene-octyl)-3-methyl-cycloheptyl]hexyl]propanedioic acid

> <PUBCHEM_IUPAC_TRADITIONAL_NAME>
2-[6-[2-(7,7-dicarboxyheptyl)-3-methyl-cycloheptyl]hexyl]malonic acid

> <PUBCHEM_IUPAC_INCHI>
InChI=1S/C26H44O8/c1-18-12-10-11-14-19(13-6-2-3-8-16-21(23(27)28)24(29)30)20(18)15-7-4-5-9-17-22(25(31)32)26(33)34/h18-22H,2-17H2,1H3,(H,27,28)(H,29,30)(H,31,32)(H,33,34)

> <PUBCHEM_IUPAC_INCHIKEY>
RIRDETXNRXZMNK-UHFFFAOYSA-N

> <PUBCHEM_XLOGP3_AA>
8.2

> <PUBCHEM_EXACT_MASS>
484.30361836

> <PUBCHEM_MOLECULAR_FORMULA>
C26H44O8

> <PUBCHEM_MOLECULAR_WEIGHT>
484.6

> <PUBCHEM_OPENEYE_CAN_SMILES>
CC1CCCCC(C1CCCCCCC(C(=O)O)C(=O)O)CCCCCCC(C(=O)O)C(=O)O

> <PUBCHEM_OPENEYE_ISO_SMILES>
CC1CCCCC(C1CCCCCCC(C(=O)O)C(=O)O)CCCCCCC(C(=O)O)C(=O)O

> <PUBCHEM_CACTVS_TPSA>
149

> <PUBCHEM_MONOISOTOPIC_WEIGHT>
484.30361836

> <PUBCHEM_TOTAL_CHARGE>
0

> <PUBCHEM_HEAVY_ATOM_COUNT>
34

> <PUBCHEM_ATOM_DEF_STEREO_COUNT>
0

> <PUBCHEM_ATOM_UDEF_STEREO_COUNT>
3

> <PUBCHEM_BOND_DEF_STEREO_COUNT>
0

> <PUBCHEM_BOND_UDEF_STEREO_COUNT>
0

> <PUBCHEM_ISOTOPIC_ATOM_COUNT>
0

> <PUBCHEM_COMPONENT_COUNT>
1

> <PUBCHEM_CACTVS_TAUTO_COUNT>
-1

> <PUBCHEM_COORDINATE_TYPE>
1
5
255

> <PUBCHEM_BONDANNOTATIONS>
10  15  3
11  18  3
9  14  3

$$$$
