 
  -OEChem-10192103552D

 48 48  0     1  0  0  0  0  0999 V2000
    4.2690   -0.5000    0.0000 O   0  0  0  0  0  0  0  0  0  0  0  0
    6.0010   -0.5000    0.0000 O   0  0  0  0  0  0  0  0  0  0  0  0
    6.0010   -2.5000    0.0000 O   0  0  0  0  0  0  0  0  0  0  0  0
    4.2690   -3.5000    0.0000 O   0  0  0  0  0  0  0  0  0  0  0  0
    2.5369   -2.5000    0.0000 O   0  0  0  0  0  0  0  0  0  0  0  0
    5.1350    2.0000    0.0000 O   0  0  0  0  0  0  0  0  0  0  0  0
    7.7331    0.5000    0.0000 O   0  0  0  0  0  0  0  0  0  0  0  0
    2.5369    0.5000    0.0000 O   0  0  0  0  0  0  0  0  0  0  0  0
    6.0010    2.5000    0.0000 O   0  0  0  0  0  0  0  0  0  0  0  0
    7.7331    3.5000    0.0000 O   0  0  0  0  0  0  0  0  0  0  0  0
    8.5991    2.0000    0.0000 O   0  0  0  0  0  0  0  0  0  0  0  0
    5.1350   -2.0000    0.0000 C   0  0  2  0  0  0  0  0  0  0  0  0
    4.2690   -2.5000    0.0000 C   0  0  2  0  0  0  0  0  0  0  0  0
    5.1350   -1.0000    0.0000 C   0  0  1  0  0  0  0  0  0  0  0  0
    3.4030   -2.0000    0.0000 C   0  0  2  0  0  0  0  0  0  0  0  0
    3.4030   -1.0000    0.0000 C   0  0  1  0  0  0  0  0  0  0  0  0
    6.0010    0.5000    0.0000 C   0  0  2  0  0  0  0  0  0  0  0  0
    5.1350    1.0000    0.0000 C   0  0  1  0  0  0  0  0  0  0  0  0
    6.8671    1.0000    0.0000 C   0  0  1  0  0  0  0  0  0  0  0  0
    2.5369   -0.5000    0.0000 C   0  0  0  0  0  0  0  0  0  0  0  0
    4.2690    0.5000    0.0000 C   0  0  0  0  0  0  0  0  0  0  0  0
    6.8671    2.0000    0.0000 C   0  0  2  0  0  0  0  0  0  0  0  0
    3.4030    1.0000    0.0000 C   0  0  0  0  0  0  0  0  0  0  0  0
    7.7331    2.5000    0.0000 C   0  0  0  0  0  0  0  0  0  0  0  0
    5.1350   -2.6200    0.0000 H   0  0  0  0  0  0  0  0  0  0  0  0
    3.7320   -2.8100    0.0000 H   0  0  0  0  0  0  0  0  0  0  0  0
    5.1350   -0.3800    0.0000 H   0  0  0  0  0  0  0  0  0  0  0  0
    3.4030   -2.6200    0.0000 H   0  0  0  0  0  0  0  0  0  0  0  0
    3.4030   -0.3800    0.0000 H   0  0  0  0  0  0  0  0  0  0  0  0
    6.5380    0.1900    0.0000 H   0  0  0  0  0  0  0  0  0  0  0  0
    5.6720    1.3100    0.0000 H   0  0  0  0  0  0  0  0  0  0  0  0
    7.4040    1.3100    0.0000 H   0  0  0  0  0  0  0  0  0  0  0  0
    1.9264   -0.3923    0.0000 H   0  0  0  0  0  0  0  0  0  0  0  0
    2.3249   -1.0826    0.0000 H   0  0  0  0  0  0  0  0  0  0  0  0
    3.8705    0.0251    0.0000 H   0  0  0  0  0  0  0  0  0  0  0  0
    4.6675    0.0251    0.0000 H   0  0  0  0  0  0  0  0  0  0  0  0
    6.3301    1.6900    0.0000 H   0  0  0  0  0  0  0  0  0  0  0  0
    6.0010   -3.1200    0.0000 H   0  0  0  0  0  0  0  0  0  0  0  0
    3.7320   -3.8100    0.0000 H   0  0  0  0  0  0  0  0  0  0  0  0
    2.0000   -2.1900    0.0000 H   0  0  0  0  0  0  0  0  0  0  0  0
    3.7130    1.5369    0.0000 H   0  0  0  0  0  0  0  0  0  0  0  0
    2.8660    1.3100    0.0000 H   0  0  0  0  0  0  0  0  0  0  0  0
    3.0930    0.4631    0.0000 H   0  0  0  0  0  0  0  0  0  0  0  0
    4.5981    2.3100    0.0000 H   0  0  0  0  0  0  0  0  0  0  0  0
    8.2700    0.8100    0.0000 H   0  0  0  0  0  0  0  0  0  0  0  0
    2.0000    0.8100    0.0000 H   0  0  0  0  0  0  0  0  0  0  0  0
    6.0010    3.1200    0.0000 H   0  0  0  0  0  0  0  0  0  0  0  0
    8.2700    3.8100    0.0000 H   0  0  0  0  0  0  0  0  0  0  0  0
  1 14  1  0  0  0  0
  1 16  1  0  0  0  0
 14  2  1  1  0  0  0
 17  2  1  6  0  0  0
 12  3  1  6  0  0  0
  3 38  1  0  0  0  0
 13  4  1  1  0  0  0
  4 39  1  0  0  0  0
 15  5  1  1  0  0  0
  5 40  1  0  0  0  0
 18  6  1  1  0  0  0
  6 44  1  0  0  0  0
 19  7  1  1  0  0  0
  7 45  1  0  0  0  0
  8 20  1  0  0  0  0
  8 46  1  0  0  0  0
 22  9  1  1  0  0  0
  9 47  1  0  0  0  0
 10 24  1  0  0  0  0
 10 48  1  0  0  0  0
 11 24  2  0  0  0  0
 12 13  1  0  0  0  0
 12 14  1  0  0  0  0
 12 25  1  0  0  0  0
 13 15  1  0  0  0  0
 13 26  1  0  0  0  0
 14 27  1  0  0  0  0
 15 16  1  0  0  0  0
 15 28  1  0  0  0  0
 16 20  1  1  0  0  0
 16 29  1  0  0  0  0
 17 18  1  0  0  0  0
 17 19  1  0  0  0  0
 17 30  1  0  0  0  0
 18 21  1  0  0  0  0
 18 31  1  0  0  0  0
 19 22  1  0  0  0  0
 19 32  1  0  0  0  0
 20 33  1  0  0  0  0
 20 34  1  0  0  0  0
 21 23  1  0  0  0  0
 21 35  1  0  0  0  0
 21 36  1  0  0  0  0
 22 24  1  0  0  0  0
 22 37  1  0  0  0  0
 23 41  1  0  0  0  0
 23 42  1  0  0  0  0
 23 43  1  0  0  0  0
M  END
> <PUBCHEM_COMPOUND_CID>
121445406

> <PUBCHEM_COMPOUND_CANONICALIZED>
1

> <PUBCHEM_CACTVS_COMPLEXITY>
405

> <PUBCHEM_CACTVS_HBOND_ACCEPTOR>
11

> <PUBCHEM_CACTVS_HBOND_DONOR>
8

> <PUBCHEM_CACTVS_ROTATABLE_BOND>
8

> <PUBCHEM_CACTVS_SUBSKEYS>
AAADceBwPAAAAAAAAAAAAAAAAAAAAAAAAAAkAAAAAAAAAAAAAAAAGgAACAAACBSwgAMCCAAABgAIAACQCAIAAAAAAAAAAAFAAAAREBYAAAAiQAAFIAAHAAHK7CzAAAAAAAAAAAAAAAAAAAAAAAAAAAAAAA==

> <PUBCHEM_IUPAC_OPENEYE_NAME>
(2R,3R,4R,5R)-2,3,5-trihydroxy-4-[(2S,3R,4S,5R,6R)-3,4,5-trihydroxy-6-(hydroxymethyl)tetrahydropyran-2-yl]oxy-heptanoic acid

> <PUBCHEM_IUPAC_CAS_NAME>
(2R,3R,4R,5R)-2,3,5-trihydroxy-4-[[(2S,3R,4S,5R,6R)-3,4,5-trihydroxy-6-(hydroxymethyl)-2-oxanyl]oxy]heptanoic acid

> <PUBCHEM_IUPAC_NAME_MARKUP>
(2<I>R</I>,3<I>R</I>,4<I>R</I>,5<I>R</I>)-2,3,5-trihydroxy-4-[(2<I>S</I>,3<I>R</I>,4<I>S</I>,5<I>R</I>,6<I>R</I>)-3,4,5-trihydroxy-6-(hydroxymethyl)oxan-2-yl]oxyheptanoic acid

> <PUBCHEM_IUPAC_NAME>
(2R,3R,4R,5R)-2,3,5-trihydroxy-4-[(2S,3R,4S,5R,6R)-3,4,5-trihydroxy-6-(hydroxymethyl)oxan-2-yl]oxyheptanoic acid

> <PUBCHEM_IUPAC_SYSTEMATIC_NAME>
(2R,3R,4R,5R)-4-[(2S,3R,4S,5R,6R)-6-(hydroxymethyl)-3,4,5-tris(oxidanyl)oxan-2-yl]oxy-2,3,5-tris(oxidanyl)heptanoic acid

> <PUBCHEM_IUPAC_TRADITIONAL_NAME>
(2R,3R,4R,5R)-2,3,5-trihydroxy-4-[(2S,3R,4S,5R,6R)-3,4,5-trihydroxy-6-methylol-tetrahydropyran-2-yl]oxy-enanthic acid

> <PUBCHEM_IUPAC_INCHI>
InChI=1S/C13H24O11/c1-2-4(15)11(8(18)9(19)12(21)22)24-13-10(20)7(17)6(16)5(3-14)23-13/h4-11,13-20H,2-3H2,1H3,(H,21,22)/t4-,5-,6+,7+,8-,9-,10-,11-,13+/m1/s1

> <PUBCHEM_IUPAC_INCHIKEY>
DJFUQHXXFHKTKP-DETVQSKCSA-N

> <PUBCHEM_XLOGP3_AA>
-3.4

> <PUBCHEM_EXACT_MASS>
356.13186158

> <PUBCHEM_MOLECULAR_FORMULA>
C13H24O11

> <PUBCHEM_MOLECULAR_WEIGHT>
356.32

> <PUBCHEM_OPENEYE_CAN_SMILES>
CCC(C(C(C(C(=O)O)O)O)OC1C(C(C(C(O1)CO)O)O)O)O

> <PUBCHEM_OPENEYE_ISO_SMILES>
CC[C@H]([C@H]([C@@H]([C@H](C(=O)O)O)O)O[C@H]1[C@@H]([C@H]([C@H]([C@H](O1)CO)O)O)O)O

> <PUBCHEM_CACTVS_TPSA>
197

> <PUBCHEM_MONOISOTOPIC_WEIGHT>
356.13186158

> <PUBCHEM_TOTAL_CHARGE>
0

> <PUBCHEM_HEAVY_ATOM_COUNT>
24

> <PUBCHEM_ATOM_DEF_STEREO_COUNT>
9

> <PUBCHEM_ATOM_UDEF_STEREO_COUNT>
0

> <PUBCHEM_BOND_DEF_STEREO_COUNT>
0

> <PUBCHEM_BOND_UDEF_STEREO_COUNT>
0

> <PUBCHEM_ISOTOPIC_ATOM_COUNT>
0

> <PUBCHEM_COMPONENT_COUNT>
1

> <PUBCHEM_CACTVS_TAUTO_COUNT>
-1

> <PUBCHEM_COORDINATE_TYPE>
1
5
255

> <PUBCHEM_BONDANNOTATIONS>
16  20  5
14  2  5
17  2  6
12  3  6
13  4  5
15  5  5
18  6  5
19  7  5
22  9  5

$$$$
