 
  -OEChem-10192103392D

 45 48  0     1  0  0  0  0  0999 V2000
    4.2690   -1.1624    0.0000 O   0  0  0  0  0  0  0  0  0  0  0  0
    6.0010   -1.1624    0.0000 O   0  0  0  0  0  0  0  0  0  0  0  0
    4.2690   -4.1624    0.0000 O   0  0  0  0  0  0  0  0  0  0  0  0
    2.5369   -3.1624    0.0000 O   0  0  0  0  0  0  0  0  0  0  0  0
    6.0010   -3.1624    0.0000 O   0  0  0  0  0  0  0  0  0  0  0  0
    2.5369   -0.1624    0.0000 O   0  0  0  0  0  0  0  0  0  0  0  0
    8.6671    0.3515    0.0000 O   0  0  0  0  0  0  0  0  0  0  0  0
   10.2417    3.5662    0.0000 O   0  0  0  0  0  0  0  0  0  0  0  0
    7.7788   -1.1797    0.0000 O   0  0  0  0  0  0  0  0  0  0  0  0
    4.2690   -3.1624    0.0000 C   0  0  1  0  0  0  0  0  0  0  0  0
    3.4030   -2.6624    0.0000 C   0  0  2  0  0  0  0  0  0  0  0  0
    5.1350   -2.6624    0.0000 C   0  0  2  0  0  0  0  0  0  0  0  0
    3.4030   -1.6624    0.0000 C   0  0  1  0  0  0  0  0  0  0  0  0
    5.1350   -1.6624    0.0000 C   0  0  3  0  0  0  0  0  0  0  0  0
    2.5369   -1.1624    0.0000 C   0  0  0  0  0  0  0  0  0  0  0  0
    6.0010   -0.1624    0.0000 C   0  0  0  0  0  0  0  0  0  0  0  0
    6.8671    0.3376    0.0000 C   0  0  0  0  0  0  0  0  0  0  0  0
    6.8711    1.3792    0.0000 C   0  0  0  0  0  0  0  0  0  0  0  0
    7.7791    1.8896    0.0000 C   0  0  0  0  0  0  0  0  0  0  0  0
    8.6471    1.3929    0.0000 C   0  0  0  0  0  0  0  0  0  0  0  0
    7.7711   -0.1797    0.0000 C   0  0  0  0  0  0  0  0  0  0  0  0
    7.7753    2.8896    0.0000 C   0  0  0  0  0  0  0  0  0  0  0  0
    8.6394    3.3929    0.0000 C   0  0  0  0  0  0  0  0  0  0  0  0
    9.5073    2.8963    0.0000 C   0  0  0  0  0  0  0  0  0  0  0  0
    9.5112    1.8963    0.0000 C   0  0  0  0  0  0  0  0  0  0  0  0
    8.8448    4.3655    0.0000 C   0  0  0  0  0  0  0  0  0  0  0  0
    9.8331    4.4724    0.0000 C   0  0  0  0  0  0  0  0  0  0  0  0
    3.7320   -3.4724    0.0000 H   0  0  0  0  0  0  0  0  0  0  0  0
    3.4030   -3.2824    0.0000 H   0  0  0  0  0  0  0  0  0  0  0  0
    5.1350   -3.2824    0.0000 H   0  0  0  0  0  0  0  0  0  0  0  0
    3.4030   -1.0424    0.0000 H   0  0  0  0  0  0  0  0  0  0  0  0
    5.1350   -1.0424    0.0000 H   0  0  0  0  0  0  0  0  0  0  0  0
    1.9264   -1.0547    0.0000 H   0  0  0  0  0  0  0  0  0  0  0  0
    2.3249   -1.7450    0.0000 H   0  0  0  0  0  0  0  0  0  0  0  0
    3.7320   -4.4724    0.0000 H   0  0  0  0  0  0  0  0  0  0  0  0
    2.0000   -2.8524    0.0000 H   0  0  0  0  0  0  0  0  0  0  0  0
    6.5380   -2.8524    0.0000 H   0  0  0  0  0  0  0  0  0  0  0  0
    5.7890    0.4202    0.0000 H   0  0  0  0  0  0  0  0  0  0  0  0
    5.3905   -0.2701    0.0000 H   0  0  0  0  0  0  0  0  0  0  0  0
    2.0000    0.1476    0.0000 H   0  0  0  0  0  0  0  0  0  0  0  0
    6.3366    1.6934    0.0000 H   0  0  0  0  0  0  0  0  0  0  0  0
    7.2371    3.1975    0.0000 H   0  0  0  0  0  0  0  0  0  0  0  0
   10.0493    1.5883    0.0000 H   0  0  0  0  0  0  0  0  0  0  0  0
    8.4290    4.8254    0.0000 H   0  0  0  0  0  0  0  0  0  0  0  0
   10.1411    5.0105    0.0000 H   0  0  0  0  0  0  0  0  0  0  0  0
  1 13  1  0  0  0  0
  1 14  1  0  0  0  0
  2 14  1  0  0  0  0
  2 16  1  0  0  0  0
 10  3  1  1  0  0  0
  3 35  1  0  0  0  0
 11  4  1  1  0  0  0
  4 36  1  0  0  0  0
 12  5  1  6  0  0  0
  5 37  1  0  0  0  0
  6 15  1  0  0  0  0
  6 40  1  0  0  0  0
  7 20  1  0  0  0  0
  7 21  1  0  0  0  0
  8 24  1  0  0  0  0
  8 27  1  0  0  0  0
  9 21  2  0  0  0  0
 10 11  1  0  0  0  0
 10 12  1  0  0  0  0
 10 28  1  0  0  0  0
 11 13  1  0  0  0  0
 11 29  1  0  0  0  0
 12 14  1  0  0  0  0
 12 30  1  0  0  0  0
 13 15  1  1  0  0  0
 13 31  1  0  0  0  0
 14 32  1  0  0  0  0
 15 33  1  0  0  0  0
 15 34  1  0  0  0  0
 16 17  1  0  0  0  0
 16 38  1  0  0  0  0
 16 39  1  0  0  0  0
 17 18  2  0  0  0  0
 17 21  1  0  0  0  0
 18 19  1  0  0  0  0
 18 41  1  0  0  0  0
 19 20  2  0  0  0  0
 19 22  1  0  0  0  0
 20 25  1  0  0  0  0
 22 23  2  0  0  0  0
 22 42  1  0  0  0  0
 23 24  1  0  0  0  0
 23 26  1  0  0  0  0
 24 25  2  0  0  0  0
 25 43  1  0  0  0  0
 26 27  2  0  0  0  0
 26 44  1  0  0  0  0
 27 45  1  0  0  0  0
M  END
> <PUBCHEM_COMPOUND_CID>
20607152

> <PUBCHEM_COMPOUND_CANONICALIZED>
1

> <PUBCHEM_CACTVS_COMPLEXITY>
593

> <PUBCHEM_CACTVS_HBOND_ACCEPTOR>
9

> <PUBCHEM_CACTVS_HBOND_DONOR>
4

> <PUBCHEM_CACTVS_ROTATABLE_BOND>
4

> <PUBCHEM_CACTVS_SUBSKEYS>
AAADceB4PAAAAAAAAAAAAAAAAAAAASAAAAA0QIAAAAAAAEiB8AAAGgAACAAADBSwmAMwDsAABkCIAqjSiAACCAAkIAAIiAEGCMgdNzaENRqie2Cl4BUPqYfI7PzOIAACCAAIAABAAAQQABAAAAAAAAAAAA==

> <PUBCHEM_IUPAC_OPENEYE_NAME>
6-[[(3R,4S,5R,6R)-3,4,5-trihydroxy-6-(hydroxymethyl)tetrahydropyran-2-yl]oxymethyl]furo[3,2-g]chromen-7-one

> <PUBCHEM_IUPAC_CAS_NAME>
6-[[(3R,4S,5R,6R)-3,4,5-trihydroxy-6-(hydroxymethyl)-2-oxanyl]oxymethyl]-7-furo[3,2-g][1]benzopyranone

> <PUBCHEM_IUPAC_NAME_MARKUP>
6-[[(3<I>R</I>,4<I>S</I>,5<I>R</I>,6<I>R</I>)-3,4,5-trihydroxy-6-(hydroxymethyl)oxan-2-yl]oxymethyl]furo[3,2-g]chromen-7-one

> <PUBCHEM_IUPAC_NAME>
6-[[(3R,4S,5R,6R)-3,4,5-trihydroxy-6-(hydroxymethyl)oxan-2-yl]oxymethyl]furo[3,2-g]chromen-7-one

> <PUBCHEM_IUPAC_SYSTEMATIC_NAME>
6-[[(3R,4S,5R,6R)-6-(hydroxymethyl)-3,4,5-tris(oxidanyl)oxan-2-yl]oxymethyl]furo[3,2-g]chromen-7-one

> <PUBCHEM_IUPAC_TRADITIONAL_NAME>
6-[[(3R,4S,5R,6R)-3,4,5-trihydroxy-6-methylol-tetrahydropyran-2-yl]oxymethyl]furo[3,2-g]chromen-7-one

> <PUBCHEM_IUPAC_INCHI>
InChI=1S/C18H18O9/c19-6-13-14(20)15(21)16(22)18(27-13)25-7-10-4-9-3-8-1-2-24-11(8)5-12(9)26-17(10)23/h1-5,13-16,18-22H,6-7H2/t13-,14+,15+,16-,18?/m1/s1

> <PUBCHEM_IUPAC_INCHIKEY>
JLHHFBIVKZMJBW-LBFDXBLBSA-N

> <PUBCHEM_XLOGP3_AA>
-0.2

> <PUBCHEM_EXACT_MASS>
378.09508215

> <PUBCHEM_MOLECULAR_FORMULA>
C18H18O9

> <PUBCHEM_MOLECULAR_WEIGHT>
378.3

> <PUBCHEM_OPENEYE_CAN_SMILES>
C1=COC2=CC3=C(C=C21)C=C(C(=O)O3)COC4C(C(C(C(O4)CO)O)O)O

> <PUBCHEM_OPENEYE_ISO_SMILES>
C1=COC2=CC3=C(C=C21)C=C(C(=O)O3)COC4[C@@H]([C@H]([C@H]([C@H](O4)CO)O)O)O

> <PUBCHEM_CACTVS_TPSA>
139

> <PUBCHEM_MONOISOTOPIC_WEIGHT>
378.09508215

> <PUBCHEM_TOTAL_CHARGE>
0

> <PUBCHEM_HEAVY_ATOM_COUNT>
27

> <PUBCHEM_ATOM_DEF_STEREO_COUNT>
4

> <PUBCHEM_ATOM_UDEF_STEREO_COUNT>
1

> <PUBCHEM_BOND_DEF_STEREO_COUNT>
0

> <PUBCHEM_BOND_UDEF_STEREO_COUNT>
0

> <PUBCHEM_ISOTOPIC_ATOM_COUNT>
0

> <PUBCHEM_COMPONENT_COUNT>
1

> <PUBCHEM_CACTVS_TAUTO_COUNT>
-1

> <PUBCHEM_COORDINATE_TYPE>
1
5
255

> <PUBCHEM_BONDANNOTATIONS>
13  15  5
17  18  8
17  21  8
18  19  8
19  20  8
19  22  8
14  2  3
20  25  8
22  23  8
23  24  8
23  26  8
24  25  8
26  27  8
10  3  5
11  4  5
12  5  6
7  20  8
7  21  8
8  24  8
8  27  8

$$$$
