 
  -OEChem-10192103542D

 51 55  0     1  0  0  0  0  0999 V2000
    9.0972    0.9702    0.0000 O   0  0  0  0  0  0  0  0  0  0  0  0
   11.4432   -0.1217    0.0000 O   0  0  0  0  0  0  0  0  0  0  0  0
   11.4470    2.0539    0.0000 O   0  0  0  0  0  0  0  0  0  0  0  0
   10.0495    3.4717    0.0000 O   0  0  0  0  0  0  0  0  0  0  0  0
    9.3730   -0.7904    0.0000 N   0  0  0  0  0  0  0  0  0  0  0  0
    6.6947   -2.0951    0.0000 N   0  0  0  0  0  0  0  0  0  0  0  0
    9.3730   -2.3999    0.0000 N   0  0  0  0  0  0  0  0  0  0  0  0
    7.5607   -0.5951    0.0000 N   0  0  0  0  0  0  0  0  0  0  0  0
    5.8286   -2.5951    0.0000 N   0  0  0  0  0  0  0  0  0  0  0  0
    7.5607   -3.5951    0.0000 N   0  0  0  0  0  0  0  0  0  0  0  0
    5.8286   -0.5951    0.0000 N   0  0  0  0  0  0  0  0  0  0  0  0
    4.7538   -3.7930    0.0000 N   0  0  0  0  0  0  0  0  0  0  0  0
    4.6102   -1.2395    0.0000 N   0  0  0  0  0  0  0  0  0  0  0  0
    2.9639   -1.7776    0.0000 N   0  0  0  0  0  0  0  0  0  0  0  0
    2.6067   -3.4724    0.0000 N   0  0  0  0  0  0  0  0  0  0  0  0
    3.3210   -0.0828    0.0000 N   0  0  0  0  0  0  0  0  0  0  0  0
    9.6836    0.1601    0.0000 C   0  0  1  0  0  0  0  0  0  0  0  0
   10.6352    0.4675    0.0000 C   0  0  3  0  0  0  0  0  0  0  0  0
   10.6369    1.4675    0.0000 C   0  0  3  0  0  0  0  0  0  0  0  0
    9.6864    1.7782    0.0000 C   0  0  1  0  0  0  0  0  0  0  0  0
    8.4267   -1.0951    0.0000 C   0  0  0  0  0  0  0  0  0  0  0  0
    9.3790    2.7298    0.0000 C   0  0  0  0  0  0  0  0  0  0  0  0
    8.4267   -2.0951    0.0000 C   0  0  0  0  0  0  0  0  0  0  0  0
    7.5607   -2.5951    0.0000 C   0  0  3  0  0  0  0  0  0  0  0  0
    9.9566   -1.5951    0.0000 C   0  0  0  0  0  0  0  0  0  0  0  0
    6.6947   -1.0951    0.0000 C   0  0  0  0  0  0  0  0  0  0  0  0
    4.9209   -2.1900    0.0000 C   0  0  0  0  0  0  0  0  0  0  0  0
    5.7256   -3.5838    0.0000 C   0  0  0  0  0  0  0  0  0  0  0  0
    4.2530   -2.9343    0.0000 C   0  0  0  0  0  0  0  0  0  0  0  0
    3.2745   -2.7281    0.0000 C   0  0  0  0  0  0  0  0  0  0  0  0
    3.6317   -1.0333    0.0000 C   0  0  0  0  0  0  0  0  0  0  0  0
   10.1213   -0.2790    0.0000 H   0  0  0  0  0  0  0  0  0  0  0  0
   11.1881    0.7480    0.0000 H   0  0  0  0  0  0  0  0  0  0  0  0
   10.5410    2.0800    0.0000 H   0  0  0  0  0  0  0  0  0  0  0  0
    9.0742    1.8762    0.0000 H   0  0  0  0  0  0  0  0  0  0  0  0
    8.9982    3.2190    0.0000 H   0  0  0  0  0  0  0  0  0  0  0  0
    8.8311    2.4396    0.0000 H   0  0  0  0  0  0  0  0  0  0  0  0
    8.0976   -2.9051    0.0000 H   0  0  0  0  0  0  0  0  0  0  0  0
   10.5766   -1.5951    0.0000 H   0  0  0  0  0  0  0  0  0  0  0  0
   12.0100    0.1295    0.0000 H   0  0  0  0  0  0  0  0  0  0  0  0
   12.0129    1.8007    0.0000 H   0  0  0  0  0  0  0  0  0  0  0  0
    8.0976   -3.9051    0.0000 H   0  0  0  0  0  0  0  0  0  0  0  0
    7.0238   -3.9051    0.0000 H   0  0  0  0  0  0  0  0  0  0  0  0
    9.8589    4.0617    0.0000 H   0  0  0  0  0  0  0  0  0  0  0  0
    6.1871   -3.9979    0.0000 H   0  0  0  0  0  0  0  0  0  0  0  0
    5.8286    0.0249    0.0000 H   0  0  0  0  0  0  0  0  0  0  0  0
    5.2917   -0.9051    0.0000 H   0  0  0  0  0  0  0  0  0  0  0  0
    2.0000   -3.3445    0.0000 H   0  0  0  0  0  0  0  0  0  0  0  0
    2.7993   -4.0617    0.0000 H   0  0  0  0  0  0  0  0  0  0  0  0
    2.7144    0.0451    0.0000 H   0  0  0  0  0  0  0  0  0  0  0  0
    3.7351    0.3787    0.0000 H   0  0  0  0  0  0  0  0  0  0  0  0
  1 17  1  0  0  0  0
  1 20  1  0  0  0  0
  2 18  1  0  0  0  0
  2 40  1  0  0  0  0
  3 19  1  0  0  0  0
  3 41  1  0  0  0  0
  4 22  1  0  0  0  0
  4 44  1  0  0  0  0
 17  5  1  6  0  0  0
  5 21  1  0  0  0  0
  5 25  1  0  0  0  0
  6  9  1  0  0  0  0
  6 24  1  0  0  0  0
  6 26  1  0  0  0  0
  7 23  1  0  0  0  0
  7 25  2  0  0  0  0
  8 21  1  0  0  0  0
  8 26  2  0  0  0  0
  9 27  1  0  0  0  0
  9 28  1  0  0  0  0
 10 24  1  0  0  0  0
 10 42  1  0  0  0  0
 10 43  1  0  0  0  0
 11 26  1  0  0  0  0
 11 46  1  0  0  0  0
 11 47  1  0  0  0  0
 12 28  2  0  0  0  0
 12 29  1  0  0  0  0
 13 27  2  0  0  0  0
 13 31  1  0  0  0  0
 14 30  1  0  0  0  0
 14 31  2  0  0  0  0
 15 30  1  0  0  0  0
 15 48  1  0  0  0  0
 15 49  1  0  0  0  0
 16 31  1  0  0  0  0
 16 50  1  0  0  0  0
 16 51  1  0  0  0  0
 17 18  1  0  0  0  0
 17 32  1  0  0  0  0
 18 19  1  0  0  0  0
 18 33  1  0  0  0  0
 19 20  1  0  0  0  0
 19 34  1  0  0  0  0
 20 22  1  6  0  0  0
 20 35  1  0  0  0  0
 21 23  2  0  0  0  0
 22 36  1  0  0  0  0
 22 37  1  0  0  0  0
 23 24  1  0  0  0  0
 24 38  1  0  0  0  0
 25 39  1  0  0  0  0
 27 29  1  0  0  0  0
 28 45  1  0  0  0  0
 29 30  2  0  0  0  0
M  END
> <PUBCHEM_COMPOUND_CID>
57261109

> <PUBCHEM_COMPOUND_CANONICALIZED>
1

> <PUBCHEM_CACTVS_COMPLEXITY>
718

> <PUBCHEM_CACTVS_HBOND_ACCEPTOR>
12

> <PUBCHEM_CACTVS_HBOND_DONOR>
7

> <PUBCHEM_CACTVS_ROTATABLE_BOND>
3

> <PUBCHEM_CACTVS_SUBSKEYS>
AAADceBz+AAAAAAAAAAAAAAAAAAAAWLEgAAsQAAAAAAAAFgB/gAAHgAYCAAACBzhlwYF8L9MFgCgAQZhZACQhC0REKAVUKA4VBCDWAJAyEAeRAgfCALTACDwMAIAAAAAAAAAAAAAAAAAAAAAAAAAAAAAAA==

> <PUBCHEM_IUPAC_OPENEYE_NAME>
(2R,5R)-2-[2,6-diamino-1-(2,6-diaminopurin-9-yl)-6H-purin-9-yl]-5-(hydroxymethyl)tetrahydrofuran-3,4-diol

> <PUBCHEM_IUPAC_CAS_NAME>
(2R,5R)-2-[2,6-diamino-1-(2,6-diamino-9-purinyl)-6H-purin-9-yl]-5-(hydroxymethyl)oxolane-3,4-diol

> <PUBCHEM_IUPAC_NAME_MARKUP>
(2<I>R</I>,5<I>R</I>)-2-[2,6-diamino-1-(2,6-diaminopurin-9-yl)-6<I>H</I>-purin-9-yl]-5-(hydroxymethyl)oxolane-3,4-diol

> <PUBCHEM_IUPAC_NAME>
(2R,5R)-2-[2,6-diamino-1-(2,6-diaminopurin-9-yl)-6H-purin-9-yl]-5-(hydroxymethyl)oxolane-3,4-diol

> <PUBCHEM_IUPAC_SYSTEMATIC_NAME>
(2R,5R)-2-[2,6-bis(azanyl)-1-[2,6-bis(azanyl)purin-9-yl]-6H-purin-9-yl]-5-(hydroxymethyl)oxolane-3,4-diol

> <PUBCHEM_IUPAC_TRADITIONAL_NAME>
(2R,5R)-2-[2,6-diamino-1-(2,6-diaminopurin-9-yl)-6H-purin-9-yl]-5-methylol-tetrahydrofuran-3,4-diol

> <PUBCHEM_IUPAC_INCHI>
InChI=1S/C15H20N12O4/c16-9-5-12(23-14(18)22-9)26(3-21-5)27-10(17)6-11(24-15(27)19)25(2-20-6)13-8(30)7(29)4(1-28)31-13/h2-4,7-8,10,13,28-30H,1,17H2,(H2,19,24)(H4,16,18,22,23)/t4-,7?,8?,10?,13-/m1/s1

> <PUBCHEM_IUPAC_INCHIKEY>
HFYRVRZTMUQTLD-ZPRHBCONSA-N

> <PUBCHEM_XLOGP3_AA>
-4.2

> <PUBCHEM_EXACT_MASS>
432.17304717

> <PUBCHEM_MOLECULAR_FORMULA>
C15H20N12O4

> <PUBCHEM_MOLECULAR_WEIGHT>
432.40

> <PUBCHEM_OPENEYE_CAN_SMILES>
C1=NC2=C(N1C3C(C(C(O3)CO)O)O)N=C(N(C2N)N4C=NC5=C(N=C(N=C54)N)N)N

> <PUBCHEM_OPENEYE_ISO_SMILES>
C1=NC2=C(N1[C@H]3C(C([C@H](O3)CO)O)O)N=C(N(C2N)N4C=NC5=C(N=C(N=C54)N)N)N

> <PUBCHEM_CACTVS_TPSA>
251

> <PUBCHEM_MONOISOTOPIC_WEIGHT>
432.17304717

> <PUBCHEM_TOTAL_CHARGE>
0

> <PUBCHEM_HEAVY_ATOM_COUNT>
31

> <PUBCHEM_ATOM_DEF_STEREO_COUNT>
2

> <PUBCHEM_ATOM_UDEF_STEREO_COUNT>
3

> <PUBCHEM_BOND_DEF_STEREO_COUNT>
0

> <PUBCHEM_BOND_UDEF_STEREO_COUNT>
0

> <PUBCHEM_ISOTOPIC_ATOM_COUNT>
0

> <PUBCHEM_COMPONENT_COUNT>
1

> <PUBCHEM_CACTVS_TAUTO_COUNT>
-1

> <PUBCHEM_COORDINATE_TYPE>
1
5
255

> <PUBCHEM_BONDANNOTATIONS>
24  10  3
12  28  8
12  29  8
13  27  8
13  31  8
14  30  8
14  31  8
18  2  3
20  22  6
21  23  8
27  29  8
29  30  8
19  3  3
17  5  6
5  21  8
5  25  8
7  23  8
7  25  8
9  27  8
9  28  8

$$$$
