 
  -OEChem-10192103522D

 46 47  0     0  0  0  0  0  0999 V2000
    8.8564   -2.7141    0.0000 P   0  0  0  0  0  0  0  0  0  0  0  0
    7.5673   -1.5574    0.0000 O   0  0  0  0  0  0  0  0  0  0  0  0
    4.9889    0.7561    0.0000 O   0  0  0  0  0  0  0  0  0  0  0  0
    9.1671   -3.6646    0.0000 O   0  0  0  0  0  0  0  0  0  0  0  0
    9.8070   -2.4034    0.0000 O   0  0  0  0  0  0  0  0  0  0  0  0
    7.9059   -3.0248    0.0000 O   0  0  0  0  0  0  0  0  0  0  0  0
    4.6783    1.7066    0.0000 N   0  0  0  0  0  0  0  0  0  0  0  0
    4.6783    3.3161    0.0000 N   0  0  0  0  0  0  0  0  0  0  0  0
    2.8660    1.5114    0.0000 N   0  0  0  0  0  0  0  0  0  0  0  0
    2.0000    3.0114    0.0000 N   0  0  0  0  0  0  0  0  0  0  0  0
    2.8660    4.5114    0.0000 N   0  0  0  0  0  0  0  0  0  0  0  0
    6.2781   -0.4006    0.0000 C   0  0  0  0  0  0  0  0  0  0  0  0
    7.2566   -0.6068    0.0000 C   0  0  0  0  0  0  0  0  0  0  0  0
    8.5458   -1.7636    0.0000 C   0  0  0  0  0  0  0  0  0  0  0  0
    5.9674    0.5499    0.0000 C   0  0  0  0  0  0  0  0  0  0  0  0
    3.7320    2.0114    0.0000 C   0  0  0  0  0  0  0  0  0  0  0  0
   10.1456   -3.8708    0.0000 C   0  0  0  0  0  0  0  0  0  0  0  0
   10.0132   -1.4249    0.0000 C   0  0  0  0  0  0  0  0  0  0  0  0
    3.7320    3.0114    0.0000 C   0  0  0  0  0  0  0  0  0  0  0  0
    5.2619    2.5114    0.0000 C   0  0  0  0  0  0  0  0  0  0  0  0
    2.8660    3.5114    0.0000 C   0  0  0  0  0  0  0  0  0  0  0  0
   10.4563   -4.8214    0.0000 C   0  0  0  0  0  0  0  0  0  0  0  0
   10.9637   -1.1143    0.0000 C   0  0  0  0  0  0  0  0  0  0  0  0
    2.0000    2.0114    0.0000 C   0  0  0  0  0  0  0  0  0  0  0  0
    5.6643   -0.4880    0.0000 H   0  0  0  0  0  0  0  0  0  0  0  0
    6.2575   -1.0203    0.0000 H   0  0  0  0  0  0  0  0  0  0  0  0
    7.8704   -0.5195    0.0000 H   0  0  0  0  0  0  0  0  0  0  0  0
    7.2772    0.0128    0.0000 H   0  0  0  0  0  0  0  0  0  0  0  0
    9.1596   -1.6762    0.0000 H   0  0  0  0  0  0  0  0  0  0  0  0
    8.5663   -1.1439    0.0000 H   0  0  0  0  0  0  0  0  0  0  0  0
    6.5812    0.6372    0.0000 H   0  0  0  0  0  0  0  0  0  0  0  0
    5.9880    1.1696    0.0000 H   0  0  0  0  0  0  0  0  0  0  0  0
   10.7594   -3.7835    0.0000 H   0  0  0  0  0  0  0  0  0  0  0  0
   10.1662   -3.2512    0.0000 H   0  0  0  0  0  0  0  0  0  0  0  0
    9.9258   -0.8111    0.0000 H   0  0  0  0  0  0  0  0  0  0  0  0
    9.3935   -1.4044    0.0000 H   0  0  0  0  0  0  0  0  0  0  0  0
    5.8819    2.5114    0.0000 H   0  0  0  0  0  0  0  0  0  0  0  0
    9.8669   -5.0140    0.0000 H   0  0  0  0  0  0  0  0  0  0  0  0
   10.6489   -5.4107    0.0000 H   0  0  0  0  0  0  0  0  0  0  0  0
   11.0456   -4.6288    0.0000 H   0  0  0  0  0  0  0  0  0  0  0  0
   11.1563   -1.7036    0.0000 H   0  0  0  0  0  0  0  0  0  0  0  0
   11.5530   -0.9217    0.0000 H   0  0  0  0  0  0  0  0  0  0  0  0
   10.7711   -0.5250    0.0000 H   0  0  0  0  0  0  0  0  0  0  0  0
    1.4631    1.7014    0.0000 H   0  0  0  0  0  0  0  0  0  0  0  0
    2.3291    4.8214    0.0000 H   0  0  0  0  0  0  0  0  0  0  0  0
    3.4030    4.8214    0.0000 H   0  0  0  0  0  0  0  0  0  0  0  0
  1  4  1  0  0  0  0
  1  5  1  0  0  0  0
  1  6  2  0  0  0  0
  1 14  1  0  0  0  0
  2 13  1  0  0  0  0
  2 14  1  0  0  0  0
  3  7  1  0  0  0  0
  3 15  1  0  0  0  0
  4 17  1  0  0  0  0
  5 18  1  0  0  0  0
  7 16  1  0  0  0  0
  7 20  1  0  0  0  0
  8 19  1  0  0  0  0
  8 20  2  0  0  0  0
  9 16  2  0  0  0  0
  9 24  1  0  0  0  0
 10 21  1  0  0  0  0
 10 24  2  0  0  0  0
 11 21  1  0  0  0  0
 11 45  1  0  0  0  0
 11 46  1  0  0  0  0
 12 13  1  0  0  0  0
 12 15  1  0  0  0  0
 12 25  1  0  0  0  0
 12 26  1  0  0  0  0
 13 27  1  0  0  0  0
 13 28  1  0  0  0  0
 14 29  1  0  0  0  0
 14 30  1  0  0  0  0
 15 31  1  0  0  0  0
 15 32  1  0  0  0  0
 16 19  1  0  0  0  0
 17 22  1  0  0  0  0
 17 33  1  0  0  0  0
 17 34  1  0  0  0  0
 18 23  1  0  0  0  0
 18 35  1  0  0  0  0
 18 36  1  0  0  0  0
 19 21  2  0  0  0  0
 20 37  1  0  0  0  0
 22 38  1  0  0  0  0
 22 39  1  0  0  0  0
 22 40  1  0  0  0  0
 23 41  1  0  0  0  0
 23 42  1  0  0  0  0
 23 43  1  0  0  0  0
 24 44  1  0  0  0  0
M  END
> <PUBCHEM_COMPOUND_CID>
19993526

> <PUBCHEM_COMPOUND_CANONICALIZED>
1

> <PUBCHEM_CACTVS_COMPLEXITY>
408

> <PUBCHEM_CACTVS_HBOND_ACCEPTOR>
9

> <PUBCHEM_CACTVS_HBOND_DONOR>
1

> <PUBCHEM_CACTVS_ROTATABLE_BOND>
11

> <PUBCHEM_CACTVS_SUBSKEYS>
AAADceBzuAIAAAAAAAAAAAAAAAAAAWAAAAAsAAAAAAAAAFgB+AAAHggUACAACAihlwYH8L5YFRCgQQZhZICAgC0REKAhUCAoVBCASABASEAUBAgJAAJAACAAAAAAAAAAAAAAAAAAAAAAAAAAAAAAAAAAAA==

> <PUBCHEM_IUPAC_OPENEYE_NAME>
9-[3-(diethoxyphosphorylmethoxy)propoxy]purin-6-amine

> <PUBCHEM_IUPAC_CAS_NAME>
9-[3-(diethoxyphosphorylmethoxy)propoxy]-6-purinamine

> <PUBCHEM_IUPAC_NAME_MARKUP>
9-[3-(diethoxyphosphorylmethoxy)propoxy]purin-6-amine

> <PUBCHEM_IUPAC_NAME>
9-[3-(diethoxyphosphorylmethoxy)propoxy]purin-6-amine

> <PUBCHEM_IUPAC_SYSTEMATIC_NAME>
9-[3-(diethoxyphosphorylmethoxy)propoxy]purin-6-amine

> <PUBCHEM_IUPAC_TRADITIONAL_NAME>
[9-[3-(diethoxyphosphorylmethoxy)propoxy]purin-6-yl]amine

> <PUBCHEM_IUPAC_INCHI>
InChI=1S/C13H22N5O5P/c1-3-22-24(19,23-4-2)10-20-6-5-7-21-18-9-17-11-12(14)15-8-16-13(11)18/h8-9H,3-7,10H2,1-2H3,(H2,14,15,16)

> <PUBCHEM_IUPAC_INCHIKEY>
QBHBAKLDBHNDAZ-UHFFFAOYSA-N

> <PUBCHEM_XLOGP3_AA>
0.4

> <PUBCHEM_EXACT_MASS>
359.13585582

> <PUBCHEM_MOLECULAR_FORMULA>
C13H22N5O5P

> <PUBCHEM_MOLECULAR_WEIGHT>
359.32

> <PUBCHEM_OPENEYE_CAN_SMILES>
CCOP(=O)(COCCCON1C=NC2=C(N=CN=C21)N)OCC

> <PUBCHEM_OPENEYE_ISO_SMILES>
CCOP(=O)(COCCCON1C=NC2=C(N=CN=C21)N)OCC

> <PUBCHEM_CACTVS_TPSA>
124

> <PUBCHEM_MONOISOTOPIC_WEIGHT>
359.13585582

> <PUBCHEM_TOTAL_CHARGE>
0

> <PUBCHEM_HEAVY_ATOM_COUNT>
24

> <PUBCHEM_ATOM_DEF_STEREO_COUNT>
0

> <PUBCHEM_ATOM_UDEF_STEREO_COUNT>
0

> <PUBCHEM_BOND_DEF_STEREO_COUNT>
0

> <PUBCHEM_BOND_UDEF_STEREO_COUNT>
0

> <PUBCHEM_ISOTOPIC_ATOM_COUNT>
0

> <PUBCHEM_COMPONENT_COUNT>
1

> <PUBCHEM_CACTVS_TAUTO_COUNT>
-1

> <PUBCHEM_COORDINATE_TYPE>
1
5
255

> <PUBCHEM_BONDANNOTATIONS>
10  21  8
10  24  8
16  19  8
19  21  8
7  16  8
7  20  8
8  19  8
8  20  8
9  16  8
9  24  8

$$$$
