 
  -OEChem-10192103582D

 66 69  0     1  0  0  0  0  0999 V2000
    6.8671   -0.5152    0.0000 O   0  0  0  0  0  0  0  0  0  0  0  0
    6.0010    0.9848    0.0000 O   0  0  0  0  0  0  0  0  0  0  0  0
    8.3719   -0.2715    0.0000 O   0  0  0  0  0  0  0  0  0  0  0  0
    5.1350   -0.5152    0.0000 O   0  0  0  0  0  0  0  0  0  0  0  0
   10.4022    0.5020    0.0000 O   0  0  0  0  0  0  0  0  0  0  0  0
    6.8671   -2.5152    0.0000 O   0  0  0  0  0  0  0  0  0  0  0  0
    5.1350   -3.5152    0.0000 O   0  0  0  0  0  0  0  0  0  0  0  0
    3.4030   -2.5152    0.0000 O   0  0  0  0  0  0  0  0  0  0  0  0
    6.0010    3.9848    0.0000 O   0  0  0  0  0  0  0  0  0  0  0  0
    7.7331    3.9848    0.0000 O   0  0  0  0  0  0  0  0  0  0  0  0
    2.5369   -1.0152    0.0000 O   0  0  0  0  0  0  0  0  0  0  0  0
   11.1094   -1.0791    0.0000 O   0  0  0  0  0  0  0  0  0  0  0  0
   12.5239   -4.2412    0.0000 O   0  0  0  0  0  0  0  0  0  0  0  0
    7.7331    0.9848    0.0000 C   0  0  2  0  0  0  0  0  0  0  0  0
    8.6793    0.6801    0.0000 C   0  0  1  0  0  0  0  0  0  0  0  0
    7.7331    1.9848    0.0000 C   0  0  2  0  0  0  0  0  0  0  0  0
    6.8671    0.4848    0.0000 C   0  0  2  0  0  0  0  0  0  0  0  0
    9.2629    1.4848    0.0000 C   0  0  0  0  0  0  0  0  0  0  0  0
    8.6793    2.2895    0.0000 C   0  0  0  0  0  0  0  0  0  0  0  0
    6.8671    2.4848    0.0000 C   0  0  0  0  0  0  0  0  0  0  0  0
    9.4893    0.0937    0.0000 C   0  0  0  0  0  0  0  0  0  0  0  0
    6.0010   -1.0152    0.0000 C   0  0  2  0  0  0  0  0  0  0  0  0
    6.0010   -2.0152    0.0000 C   0  0  1  0  0  0  0  0  0  0  0  0
    5.1350   -2.5152    0.0000 C   0  0  2  0  0  0  0  0  0  0  0  0
    6.0010    1.9848    0.0000 C   0  0  0  0  0  0  0  0  0  0  0  0
    4.2690   -2.0152    0.0000 C   0  0  1  0  0  0  0  0  0  0  0  0
    4.2690   -1.0152    0.0000 C   0  0  1  0  0  0  0  0  0  0  0  0
    6.8671    3.4848    0.0000 C   0  0  0  0  0  0  0  0  0  0  0  0
    3.4030   -0.5152    0.0000 C   0  0  0  0  0  0  0  0  0  0  0  0
   11.2122   -0.0844    0.0000 C   0  0  0  0  0  0  0  0  0  0  0  0
   12.1251    0.3239    0.0000 C   0  0  0  0  0  0  0  0  0  0  0  0
   12.9351   -0.2624    0.0000 C   0  0  0  0  0  0  0  0  0  0  0  0
   12.8323   -1.2572    0.0000 C   0  0  0  0  0  0  0  0  0  0  0  0
   13.6423   -1.8435    0.0000 C   0  0  0  0  0  0  0  0  0  0  0  0
   11.9194   -1.6655    0.0000 C   0  0  0  0  0  0  0  0  0  0  0  0
   13.5395   -2.8382    0.0000 C   0  0  0  0  0  0  0  0  0  0  0  0
   11.8166   -2.6602    0.0000 C   0  0  0  0  0  0  0  0  0  0  0  0
   12.6267   -3.2466    0.0000 C   0  0  0  0  0  0  0  0  0  0  0  0
    7.8230    0.1396    0.0000 H   0  0  0  0  0  0  0  0  0  0  0  0
    7.8230    2.8300    0.0000 H   0  0  0  0  0  0  0  0  0  0  0  0
    7.4040    0.1748    0.0000 H   0  0  0  0  0  0  0  0  0  0  0  0
    9.8829    1.4848    0.0000 H   0  0  0  0  0  0  0  0  0  0  0  0
    8.8719    2.8789    0.0000 H   0  0  0  0  0  0  0  0  0  0  0  0
    9.0441   -0.3378    0.0000 H   0  0  0  0  0  0  0  0  0  0  0  0
    9.8369   -0.4197    0.0000 H   0  0  0  0  0  0  0  0  0  0  0  0
    6.5380   -1.3252    0.0000 H   0  0  0  0  0  0  0  0  0  0  0  0
    6.0010   -2.6352    0.0000 H   0  0  0  0  0  0  0  0  0  0  0  0
    4.5981   -2.8252    0.0000 H   0  0  0  0  0  0  0  0  0  0  0  0
    4.2690   -2.6352    0.0000 H   0  0  0  0  0  0  0  0  0  0  0  0
    5.4641    2.2948    0.0000 H   0  0  0  0  0  0  0  0  0  0  0  0
    4.2690   -0.3952    0.0000 H   0  0  0  0  0  0  0  0  0  0  0  0
    8.7876   -0.7315    0.0000 H   0  0  0  0  0  0  0  0  0  0  0  0
    3.8015   -0.0402    0.0000 H   0  0  0  0  0  0  0  0  0  0  0  0
    3.0044   -0.0402    0.0000 H   0  0  0  0  0  0  0  0  0  0  0  0
    6.8671   -3.1352    0.0000 H   0  0  0  0  0  0  0  0  0  0  0  0
    4.5981   -3.8252    0.0000 H   0  0  0  0  0  0  0  0  0  0  0  0
    3.4030   -3.1352    0.0000 H   0  0  0  0  0  0  0  0  0  0  0  0
    6.0010    4.6048    0.0000 H   0  0  0  0  0  0  0  0  0  0  0  0
    2.0000   -0.7052    0.0000 H   0  0  0  0  0  0  0  0  0  0  0  0
   12.1888    0.9407    0.0000 H   0  0  0  0  0  0  0  0  0  0  0  0
   13.5010   -0.0093    0.0000 H   0  0  0  0  0  0  0  0  0  0  0  0
   14.2083   -1.5904    0.0000 H   0  0  0  0  0  0  0  0  0  0  0  0
   11.4172   -1.3019    0.0000 H   0  0  0  0  0  0  0  0  0  0  0  0
   14.0417   -3.2018    0.0000 H   0  0  0  0  0  0  0  0  0  0  0  0
   11.2507   -2.9133    0.0000 H   0  0  0  0  0  0  0  0  0  0  0  0
   13.0261   -4.6048    0.0000 H   0  0  0  0  0  0  0  0  0  0  0  0
 17  1  1  6  0  0  0
 22  1  1  1  0  0  0
  2 17  1  0  0  0  0
  2 25  1  0  0  0  0
 15  3  1  1  0  0  0
  3 52  1  0  0  0  0
  4 22  1  0  0  0  0
  4 27  1  0  0  0  0
  5 21  1  0  0  0  0
  5 30  1  0  0  0  0
 23  6  1  6  0  0  0
  6 55  1  0  0  0  0
 24  7  1  1  0  0  0
  7 56  1  0  0  0  0
 26  8  1  6  0  0  0
  8 57  1  0  0  0  0
  9 28  1  0  0  0  0
  9 58  1  0  0  0  0
 10 28  2  0  0  0  0
 11 29  1  0  0  0  0
 11 59  1  0  0  0  0
 12 30  2  0  0  0  0
 13 38  1  0  0  0  0
 13 66  1  0  0  0  0
 14 15  1  0  0  0  0
 14 16  1  0  0  0  0
 14 17  1  0  0  0  0
 14 39  1  6  0  0  0
 15 18  1  0  0  0  0
 15 21  1  0  0  0  0
 16 19  1  0  0  0  0
 16 20  1  0  0  0  0
 16 40  1  6  0  0  0
 17 41  1  0  0  0  0
 18 19  2  0  0  0  0
 18 42  1  0  0  0  0
 19 43  1  0  0  0  0
 20 25  2  0  0  0  0
 20 28  1  0  0  0  0
 21 44  1  0  0  0  0
 21 45  1  0  0  0  0
 22 23  1  0  0  0  0
 22 46  1  0  0  0  0
 23 24  1  0  0  0  0
 23 47  1  0  0  0  0
 24 26  1  0  0  0  0
 24 48  1  0  0  0  0
 25 50  1  0  0  0  0
 26 27  1  0  0  0  0
 26 49  1  0  0  0  0
 27 29  1  1  0  0  0
 27 51  1  0  0  0  0
 29 53  1  0  0  0  0
 29 54  1  0  0  0  0
 30 31  1  0  0  0  0
 31 32  2  0  0  0  0
 31 60  1  0  0  0  0
 32 33  1  0  0  0  0
 32 61  1  0  0  0  0
 33 34  2  0  0  0  0
 33 35  1  0  0  0  0
 34 36  1  0  0  0  0
 34 62  1  0  0  0  0
 35 37  2  0  0  0  0
 35 63  1  0  0  0  0
 36 38  2  0  0  0  0
 36 64  1  0  0  0  0
 37 38  1  0  0  0  0
 37 65  1  0  0  0  0
M  END
> <PUBCHEM_COMPOUND_CID>
6440568

> <PUBCHEM_COMPOUND_CANONICALIZED>
1

> <PUBCHEM_CACTVS_COMPLEXITY>
955

> <PUBCHEM_CACTVS_HBOND_ACCEPTOR>
13

> <PUBCHEM_CACTVS_HBOND_DONOR>
7

> <PUBCHEM_CACTVS_ROTATABLE_BOND>
9

> <PUBCHEM_CACTVS_SUBSKEYS>
AAADceB4PAAAAAAAAAAAAAAAAAAAAQAAAAA0QIAAAAAAAEABAAAAGgAACAAADVSwmAMwDoAABgCIAiDSCAACCAAgIAAIiAEGCMgZNjKCMRKicAAlwBEPuYfI7BxOoAAAAAAAAABAAAAAAAAAAAAAAAAAAA==

> <PUBCHEM_IUPAC_OPENEYE_NAME>
(1S,4aS,7R,7aS)-7-hydroxy-7-[[(Z)-3-(4-hydroxyphenyl)prop-2-enoyl]oxymethyl]-1-[(2S,3R,4S,5S,6R)-3,4,5-trihydroxy-6-(hydroxymethyl)tetrahydropyran-2-yl]oxy-4a,7a-dihydro-1H-cyclopenta[c]pyran-4-carboxylic acid

> <PUBCHEM_IUPAC_CAS_NAME>
(1S,4aS,7R,7aS)-7-hydroxy-7-[[(Z)-3-(4-hydroxyphenyl)-1-oxoprop-2-enoxy]methyl]-1-[[(2S,3R,4S,5S,6R)-3,4,5-trihydroxy-6-(hydroxymethyl)-2-oxanyl]oxy]-4a,7a-dihydro-1H-cyclopenta[c]pyran-4-carboxylic acid

> <PUBCHEM_IUPAC_NAME_MARKUP>
(1<I>S</I>,4<I>a</I><I>S</I>,7<I>R</I>,7<I>a</I><I>S</I>)-7-hydroxy-7-[[(<I>Z</I>)-3-(4-hydroxyphenyl)prop-2-enoyl]oxymethyl]-1-[(2<I>S</I>,3<I>R</I>,4<I>S</I>,5<I>S</I>,6<I>R</I>)-3,4,5-trihydroxy-6-(hydroxymethyl)oxan-2-yl]oxy-4<I>a</I>,7<I>a</I>-dihydro-1<I>H</I>-cyclopenta[c]pyran-4-carboxylic acid

> <PUBCHEM_IUPAC_NAME>
(1S,4aS,7R,7aS)-7-hydroxy-7-[[(Z)-3-(4-hydroxyphenyl)prop-2-enoyl]oxymethyl]-1-[(2S,3R,4S,5S,6R)-3,4,5-trihydroxy-6-(hydroxymethyl)oxan-2-yl]oxy-4a,7a-dihydro-1H-cyclopenta[c]pyran-4-carboxylic acid

> <PUBCHEM_IUPAC_SYSTEMATIC_NAME>
(1S,4aS,7R,7aS)-1-[(2S,3R,4S,5S,6R)-6-(hydroxymethyl)-3,4,5-tris(oxidanyl)oxan-2-yl]oxy-7-[[(Z)-3-(4-hydroxyphenyl)prop-2-enoyl]oxymethyl]-7-oxidanyl-4a,7a-dihydro-1H-cyclopenta[c]pyran-4-carboxylic acid

> <PUBCHEM_IUPAC_TRADITIONAL_NAME>
(1S,4aS,7R,7aS)-7-hydroxy-7-[[(Z)-3-(4-hydroxyphenyl)acryloyl]oxymethyl]-1-[(2S,3R,4S,5S,6R)-3,4,5-trihydroxy-6-methylol-tetrahydropyran-2-yl]oxy-4a,7a-dihydro-1H-cyclopenta[c]pyran-4-carboxylic acid

> <PUBCHEM_IUPAC_INCHI>
InChI=1S/C25H28O13/c26-9-16-19(29)20(30)21(31)24(37-16)38-23-18-14(15(10-35-23)22(32)33)7-8-25(18,34)11-36-17(28)6-3-12-1-4-13(27)5-2-12/h1-8,10,14,16,18-21,23-24,26-27,29-31,34H,9,11H2,(H,32,33)/b6-3-/t14-,16-,18-,19-,20+,21-,23+,24+,25+/m1/s1

> <PUBCHEM_IUPAC_INCHIKEY>
WJPRKOJNQIZCGY-ZCIFOOIUSA-N

> <PUBCHEM_XLOGP3_AA>
-0.8

> <PUBCHEM_EXACT_MASS>
536.15299094

> <PUBCHEM_MOLECULAR_FORMULA>
C25H28O13

> <PUBCHEM_MOLECULAR_WEIGHT>
536.5

> <PUBCHEM_OPENEYE_CAN_SMILES>
C1=CC(C2C1C(=COC2OC3C(C(C(C(O3)CO)O)O)O)C(=O)O)(COC(=O)C=CC4=CC=C(C=C4)O)O

> <PUBCHEM_OPENEYE_ISO_SMILES>
C1=C[C@@]([C@@H]2[C@H]1C(=CO[C@H]2O[C@H]3[C@@H]([C@H]([C@@H]([C@H](O3)CO)O)O)O)C(=O)O)(COC(=O)/C=C\C4=CC=C(C=C4)O)O

> <PUBCHEM_CACTVS_TPSA>
213

> <PUBCHEM_MONOISOTOPIC_WEIGHT>
536.15299094

> <PUBCHEM_TOTAL_CHARGE>
0

> <PUBCHEM_HEAVY_ATOM_COUNT>
38

> <PUBCHEM_ATOM_DEF_STEREO_COUNT>
9

> <PUBCHEM_ATOM_UDEF_STEREO_COUNT>
0

> <PUBCHEM_BOND_DEF_STEREO_COUNT>
1

> <PUBCHEM_BOND_UDEF_STEREO_COUNT>
0

> <PUBCHEM_ISOTOPIC_ATOM_COUNT>
0

> <PUBCHEM_COMPONENT_COUNT>
1

> <PUBCHEM_CACTVS_TAUTO_COUNT>
4

> <PUBCHEM_COORDINATE_TYPE>
1
5
255

> <PUBCHEM_BONDANNOTATIONS>
17  1  6
22  1  5
14  39  6
16  40  6
27  29  5
15  3  5
33  34  8
33  35  8
34  36  8
35  37  8
36  38  8
37  38  8
23  6  6
24  7  5
26  8  6

$$$$
