 
  -OEChem-10192103582D

 63 63  0     1  0  0  0  0  0999 V2000
    6.8671   -0.2500    0.0000 O   0  0  0  0  0  0  0  0  0  0  0  0
    6.0010    3.2500    0.0000 O   0  0  0  0  0  0  0  0  0  0  0  0
    6.8671   -1.2500    0.0000 O   0  0  0  0  0  0  0  0  0  0  0  0
    6.0010   -2.7500    0.0000 O   0  0  0  0  0  0  0  0  0  0  0  0
    4.2690   -5.7500    0.0000 O   0  0  0  0  0  0  0  0  0  0  0  0
    6.8671    1.7500    0.0000 N   0  0  0  0  0  0  0  0  0  0  0  0
    5.1350   -0.2500    0.0000 N   0  0  0  0  0  0  0  0  0  0  0  0
    7.7331    4.2500    0.0000 N   0  0  0  0  0  0  0  0  0  0  0  0
    4.2690    4.2500    0.0000 N   0  0  0  0  0  0  0  0  0  0  0  0
    3.4030    5.7500    0.0000 N   0  0  0  0  0  0  0  0  0  0  0  0
    2.5369    4.2500    0.0000 N   0  0  0  0  0  0  0  0  0  0  0  0
    6.0010    1.2500    0.0000 C   0  0  1  0  0  0  0  0  0  0  0  0
    5.1350    1.7500    0.0000 C   0  0  0  0  0  0  0  0  0  0  0  0
    7.7331    3.2500    0.0000 C   0  0  1  0  0  0  0  0  0  0  0  0
    8.5991    2.7500    0.0000 C   0  0  0  0  0  0  0  0  0  0  0  0
    5.1350    2.7500    0.0000 C   0  0  0  0  0  0  0  0  0  0  0  0
    6.0010    0.2500    0.0000 C   0  0  0  0  0  0  0  0  0  0  0  0
    6.8671    2.7500    0.0000 C   0  0  0  0  0  0  0  0  0  0  0  0
    5.1350   -1.2500    0.0000 C   0  0  1  0  0  0  0  0  0  0  0  0
    9.4651    3.2500    0.0000 C   0  0  0  0  0  0  0  0  0  0  0  0
    8.5991    1.7500    0.0000 C   0  0  0  0  0  0  0  0  0  0  0  0
    4.2690   -1.7500    0.0000 C   0  0  0  0  0  0  0  0  0  0  0  0
    4.2690    3.2500    0.0000 C   0  0  0  0  0  0  0  0  0  0  0  0
    4.2690   -2.7500    0.0000 C   0  0  0  0  0  0  0  0  0  0  0  0
    6.0010   -1.7500    0.0000 C   0  0  0  0  0  0  0  0  0  0  0  0
    5.1350   -3.2500    0.0000 C   0  0  0  0  0  0  0  0  0  0  0  0
    3.4030   -3.2500    0.0000 C   0  0  0  0  0  0  0  0  0  0  0  0
    5.1350   -4.2500    0.0000 C   0  0  0  0  0  0  0  0  0  0  0  0
    3.4030   -4.2500    0.0000 C   0  0  0  0  0  0  0  0  0  0  0  0
    4.2690   -4.7500    0.0000 C   0  0  0  0  0  0  0  0  0  0  0  0
    3.4030    4.7500    0.0000 C   0  0  0  0  0  0  0  0  0  0  0  0
    6.5380    0.9400    0.0000 H   0  0  0  0  0  0  0  0  0  0  0  0
    4.5244    1.8577    0.0000 H   0  0  0  0  0  0  0  0  0  0  0  0
    4.9230    1.1674    0.0000 H   0  0  0  0  0  0  0  0  0  0  0  0
    7.1962    3.5600    0.0000 H   0  0  0  0  0  0  0  0  0  0  0  0
    8.5991    3.3700    0.0000 H   0  0  0  0  0  0  0  0  0  0  0  0
    7.4040    1.4400    0.0000 H   0  0  0  0  0  0  0  0  0  0  0  0
    5.7456    2.6423    0.0000 H   0  0  0  0  0  0  0  0  0  0  0  0
    5.3471    3.3326    0.0000 H   0  0  0  0  0  0  0  0  0  0  0  0
    5.6720   -0.9400    0.0000 H   0  0  0  0  0  0  0  0  0  0  0  0
    4.5981    0.0600    0.0000 H   0  0  0  0  0  0  0  0  0  0  0  0
    9.7751    2.7131    0.0000 H   0  0  0  0  0  0  0  0  0  0  0  0
   10.0021    3.5600    0.0000 H   0  0  0  0  0  0  0  0  0  0  0  0
    9.1551    3.7869    0.0000 H   0  0  0  0  0  0  0  0  0  0  0  0
    7.9791    1.7500    0.0000 H   0  0  0  0  0  0  0  0  0  0  0  0
    8.5991    1.1300    0.0000 H   0  0  0  0  0  0  0  0  0  0  0  0
    9.2191    1.7500    0.0000 H   0  0  0  0  0  0  0  0  0  0  0  0
    4.0569   -1.1674    0.0000 H   0  0  0  0  0  0  0  0  0  0  0  0
    3.6584   -1.8577    0.0000 H   0  0  0  0  0  0  0  0  0  0  0  0
    3.6584    3.3577    0.0000 H   0  0  0  0  0  0  0  0  0  0  0  0
    4.0569    2.6674    0.0000 H   0  0  0  0  0  0  0  0  0  0  0  0
    8.2700    4.5600    0.0000 H   0  0  0  0  0  0  0  0  0  0  0  0
    7.1962    4.5600    0.0000 H   0  0  0  0  0  0  0  0  0  0  0  0
    5.6720   -2.9400    0.0000 H   0  0  0  0  0  0  0  0  0  0  0  0
    2.8660   -2.9400    0.0000 H   0  0  0  0  0  0  0  0  0  0  0  0
    5.6720   -4.5600    0.0000 H   0  0  0  0  0  0  0  0  0  0  0  0
    2.8660   -4.5600    0.0000 H   0  0  0  0  0  0  0  0  0  0  0  0
    7.4040   -1.5600    0.0000 H   0  0  0  0  0  0  0  0  0  0  0  0
    2.8660    6.0600    0.0000 H   0  0  0  0  0  0  0  0  0  0  0  0
    3.9399    6.0600    0.0000 H   0  0  0  0  0  0  0  0  0  0  0  0
    2.0000    4.5600    0.0000 H   0  0  0  0  0  0  0  0  0  0  0  0
    2.5369    3.6300    0.0000 H   0  0  0  0  0  0  0  0  0  0  0  0
    3.7320   -6.0600    0.0000 H   0  0  0  0  0  0  0  0  0  0  0  0
  1 17  2  0  0  0  0
  2 18  2  0  0  0  0
  3 25  1  0  0  0  0
  3 58  1  0  0  0  0
  4 25  2  0  0  0  0
  5 30  1  0  0  0  0
  5 63  1  0  0  0  0
 12  6  1  6  0  0  0
  6 18  1  0  0  0  0
  6 37  1  0  0  0  0
  7 17  1  0  0  0  0
 19  7  1  6  0  0  0
  7 41  1  0  0  0  0
 14  8  1  1  0  0  0
  8 52  1  0  0  0  0
  8 53  1  0  0  0  0
  9 23  1  0  0  0  0
  9 31  2  0  0  0  0
 10 31  1  0  0  0  0
 10 59  1  0  0  0  0
 10 60  1  0  0  0  0
 11 31  1  0  0  0  0
 11 61  1  0  0  0  0
 11 62  1  0  0  0  0
 12 13  1  0  0  0  0
 12 17  1  0  0  0  0
 12 32  1  0  0  0  0
 13 16  1  0  0  0  0
 13 33  1  0  0  0  0
 13 34  1  0  0  0  0
 14 15  1  0  0  0  0
 14 18  1  0  0  0  0
 14 35  1  0  0  0  0
 15 20  1  0  0  0  0
 15 21  1  0  0  0  0
 15 36  1  0  0  0  0
 16 23  1  0  0  0  0
 16 38  1  0  0  0  0
 16 39  1  0  0  0  0
 19 22  1  0  0  0  0
 19 25  1  0  0  0  0
 19 40  1  0  0  0  0
 20 42  1  0  0  0  0
 20 43  1  0  0  0  0
 20 44  1  0  0  0  0
 21 45  1  0  0  0  0
 21 46  1  0  0  0  0
 21 47  1  0  0  0  0
 22 24  1  0  0  0  0
 22 48  1  0  0  0  0
 22 49  1  0  0  0  0
 23 50  1  0  0  0  0
 23 51  1  0  0  0  0
 24 26  2  0  0  0  0
 24 27  1  0  0  0  0
 26 28  1  0  0  0  0
 26 54  1  0  0  0  0
 27 29  2  0  0  0  0
 27 55  1  0  0  0  0
 28 30  2  0  0  0  0
 28 56  1  0  0  0  0
 29 30  1  0  0  0  0
 29 57  1  0  0  0  0
M  END
> <PUBCHEM_COMPOUND_CID>
9803073

> <PUBCHEM_COMPOUND_CANONICALIZED>
1

> <PUBCHEM_CACTVS_COMPLEXITY>
630

> <PUBCHEM_CACTVS_HBOND_ACCEPTOR>
7

> <PUBCHEM_CACTVS_HBOND_DONOR>
7

> <PUBCHEM_CACTVS_ROTATABLE_BOND>
12

> <PUBCHEM_CACTVS_SUBSKEYS>
AAADcfB7uAAAAAAAAAAAAAAAAAAAAAAAAAAwAAAAAAAAAAABAAAAHgAQCAAADSzBmAQzDoLAAgCoAiHSPAACAAEgIAAIiIGOCIgKZjKCkTOUcAAk1hGYmAeYyaCOIAAAAAAAAABAAAAAAAAAAAAAAAAAAA==

> <PUBCHEM_IUPAC_OPENEYE_NAME>
(2S)-2-[[(2S)-2-[[(2S)-2-amino-3-methyl-butanoyl]amino]-5-guanidino-pentanoyl]amino]-3-(4-hydroxyphenyl)propanoic acid

> <PUBCHEM_IUPAC_CAS_NAME>
(2S)-2-[[(2S)-2-[[(2S)-2-amino-3-methyl-1-oxobutyl]amino]-5-(diaminomethylideneamino)-1-oxopentyl]amino]-3-(4-hydroxyphenyl)propanoic acid

> <PUBCHEM_IUPAC_NAME_MARKUP>
(2<I>S</I>)-2-[[(2<I>S</I>)-2-[[(2<I>S</I>)-2-amino-3-methylbutanoyl]amino]-5-(diaminomethylideneamino)pentanoyl]amino]-3-(4-hydroxyphenyl)propanoic acid

> <PUBCHEM_IUPAC_NAME>
(2S)-2-[[(2S)-2-[[(2S)-2-amino-3-methylbutanoyl]amino]-5-(diaminomethylideneamino)pentanoyl]amino]-3-(4-hydroxyphenyl)propanoic acid

> <PUBCHEM_IUPAC_SYSTEMATIC_NAME>
(2S)-2-[[(2S)-2-[[(2S)-2-azanyl-3-methyl-butanoyl]amino]-5-[bis(azanyl)methylideneamino]pentanoyl]amino]-3-(4-hydroxyphenyl)propanoic acid

> <PUBCHEM_IUPAC_TRADITIONAL_NAME>
(2S)-2-[[(2S)-2-[[(2S)-2-amino-3-methyl-butanoyl]amino]-5-guanidino-pentanoyl]amino]-3-(4-hydroxyphenyl)propionic acid

> <PUBCHEM_IUPAC_INCHI>
InChI=1S/C20H32N6O5/c1-11(2)16(21)18(29)25-14(4-3-9-24-20(22)23)17(28)26-15(19(30)31)10-12-5-7-13(27)8-6-12/h5-8,11,14-16,27H,3-4,9-10,21H2,1-2H3,(H,25,29)(H,26,28)(H,30,31)(H4,22,23,24)/t14-,15-,16-/m0/s1

> <PUBCHEM_IUPAC_INCHIKEY>
WKWJJQZZZBBWKV-JYJNAYRXSA-N

> <PUBCHEM_XLOGP3>
-4

> <PUBCHEM_EXACT_MASS>
436.24341814

> <PUBCHEM_MOLECULAR_FORMULA>
C20H32N6O5

> <PUBCHEM_MOLECULAR_WEIGHT>
436.5

> <PUBCHEM_OPENEYE_CAN_SMILES>
CC(C)C(C(=O)NC(CCCN=C(N)N)C(=O)NC(CC1=CC=C(C=C1)O)C(=O)O)N

> <PUBCHEM_OPENEYE_ISO_SMILES>
CC(C)[C@@H](C(=O)N[C@@H](CCCN=C(N)N)C(=O)N[C@@H](CC1=CC=C(C=C1)O)C(=O)O)N

> <PUBCHEM_CACTVS_TPSA>
206

> <PUBCHEM_MONOISOTOPIC_WEIGHT>
436.24341814

> <PUBCHEM_TOTAL_CHARGE>
0

> <PUBCHEM_HEAVY_ATOM_COUNT>
31

> <PUBCHEM_ATOM_DEF_STEREO_COUNT>
3

> <PUBCHEM_ATOM_UDEF_STEREO_COUNT>
0

> <PUBCHEM_BOND_DEF_STEREO_COUNT>
0

> <PUBCHEM_BOND_UDEF_STEREO_COUNT>
0

> <PUBCHEM_ISOTOPIC_ATOM_COUNT>
0

> <PUBCHEM_COMPONENT_COUNT>
1

> <PUBCHEM_CACTVS_TAUTO_COUNT>
-1

> <PUBCHEM_COORDINATE_TYPE>
1
5
255

> <PUBCHEM_BONDANNOTATIONS>
24  26  8
24  27  8
26  28  8
27  29  8
28  30  8
29  30  8
12  6  6
19  7  6
14  8  5

$$$$
