 
  -OEChem-10192104362D

 48 50  0     1  0  0  0  0  0999 V2000
    7.1962   -0.1550    0.0000 O   0  0  0  0  0  0  0  0  0  0  0  0
    8.9282   -0.1550    0.0000 O   0  0  0  0  0  0  0  0  0  0  0  0
    7.1962    2.8450    0.0000 O   0  0  0  0  0  0  0  0  0  0  0  0
    8.9282    1.8450    0.0000 O   0  0  0  0  0  0  0  0  0  0  0  0
    5.4641    1.8450    0.0000 O   0  0  0  0  0  0  0  0  0  0  0  0
    5.4641   -0.1550    0.0000 O   0  0  0  0  0  0  0  0  0  0  0  0
    4.5981    1.3450    0.0000 O   0  0  0  0  0  0  0  0  0  0  0  0
    6.3301   -1.6550    0.0000 O   0  0  0  0  0  0  0  0  0  0  0  0
    2.8660    1.3450    0.0000 O   0  0  0  0  0  0  0  0  0  0  0  0
    7.1962    1.8450    0.0000 C   0  0  2  0  0  0  0  0  0  0  0  0
    8.0622    1.3450    0.0000 C   0  0  2  0  0  0  0  0  0  0  0  0
    6.3301    1.3450    0.0000 C   0  0  1  0  0  0  0  0  0  0  0  0
    8.0622    0.3450    0.0000 C   0  0  1  0  0  0  0  0  0  0  0  0
    6.3301    0.3450    0.0000 C   0  0  2  0  0  0  0  0  0  0  0  0
    8.9282   -1.1550    0.0000 C   0  0  0  0  0  0  0  0  0  0  0  0
    4.5981    0.3450    0.0000 C   0  0  0  0  0  0  0  0  0  0  0  0
    8.0622   -1.6550    0.0000 C   0  0  0  0  0  0  0  0  0  0  0  0
    9.7942   -1.6550    0.0000 C   0  0  0  0  0  0  0  0  0  0  0  0
    3.7320   -0.1550    0.0000 C   0  0  0  0  0  0  0  0  0  0  0  0
    8.0622   -2.6550    0.0000 C   0  0  0  0  0  0  0  0  0  0  0  0
    7.1962   -1.1550    0.0000 C   0  0  0  0  0  0  0  0  0  0  0  0
    9.7942   -2.6550    0.0000 C   0  0  0  0  0  0  0  0  0  0  0  0
    8.9282   -3.1550    0.0000 C   0  0  0  0  0  0  0  0  0  0  0  0
    2.8660    0.3450    0.0000 C   0  0  0  0  0  0  0  0  0  0  0  0
    3.7320   -1.1550    0.0000 C   0  0  0  0  0  0  0  0  0  0  0  0
    2.0000   -0.1550    0.0000 C   0  0  0  0  0  0  0  0  0  0  0  0
    2.8660   -1.6550    0.0000 C   0  0  0  0  0  0  0  0  0  0  0  0
    2.0000   -1.1550    0.0000 C   0  0  0  0  0  0  0  0  0  0  0  0
    7.7331    2.1550    0.0000 H   0  0  0  0  0  0  0  0  0  0  0  0
    8.0622    1.9650    0.0000 H   0  0  0  0  0  0  0  0  0  0  0  0
    6.3301    1.9650    0.0000 H   0  0  0  0  0  0  0  0  0  0  0  0
    8.0622   -0.2750    0.0000 H   0  0  0  0  0  0  0  0  0  0  0  0
    5.7932    0.6550    0.0000 H   0  0  0  0  0  0  0  0  0  0  0  0
    6.6592    3.1550    0.0000 H   0  0  0  0  0  0  0  0  0  0  0  0
    8.9282    2.4650    0.0000 H   0  0  0  0  0  0  0  0  0  0  0  0
    5.4641    2.4650    0.0000 H   0  0  0  0  0  0  0  0  0  0  0  0
   10.3312   -1.3450    0.0000 H   0  0  0  0  0  0  0  0  0  0  0  0
    7.5252   -2.9650    0.0000 H   0  0  0  0  0  0  0  0  0  0  0  0
    7.5947   -0.6801    0.0000 H   0  0  0  0  0  0  0  0  0  0  0  0
    6.7976   -0.6801    0.0000 H   0  0  0  0  0  0  0  0  0  0  0  0
   10.3312   -2.9650    0.0000 H   0  0  0  0  0  0  0  0  0  0  0  0
    8.9282   -3.7750    0.0000 H   0  0  0  0  0  0  0  0  0  0  0  0
    4.2690   -1.4650    0.0000 H   0  0  0  0  0  0  0  0  0  0  0  0
    1.4631    0.1550    0.0000 H   0  0  0  0  0  0  0  0  0  0  0  0
    2.8660   -2.2750    0.0000 H   0  0  0  0  0  0  0  0  0  0  0  0
    1.4631   -1.4650    0.0000 H   0  0  0  0  0  0  0  0  0  0  0  0
    6.3301   -2.2750    0.0000 H   0  0  0  0  0  0  0  0  0  0  0  0
    2.3291    1.6550    0.0000 H   0  0  0  0  0  0  0  0  0  0  0  0
  1 13  1  0  0  0  0
  1 14  1  0  0  0  0
 13  2  1  6  0  0  0
  2 15  1  0  0  0  0
 10  3  1  6  0  0  0
  3 34  1  0  0  0  0
 11  4  1  1  0  0  0
  4 35  1  0  0  0  0
 12  5  1  1  0  0  0
  5 36  1  0  0  0  0
 14  6  1  6  0  0  0
  6 16  1  0  0  0  0
  7 16  2  0  0  0  0
  8 21  1  0  0  0  0
  8 47  1  0  0  0  0
  9 24  1  0  0  0  0
  9 48  1  0  0  0  0
 10 11  1  0  0  0  0
 10 12  1  0  0  0  0
 10 29  1  0  0  0  0
 11 13  1  0  0  0  0
 11 30  1  0  0  0  0
 12 14  1  0  0  0  0
 12 31  1  0  0  0  0
 13 32  1  0  0  0  0
 14 33  1  0  0  0  0
 15 17  1  0  0  0  0
 15 18  2  0  0  0  0
 16 19  1  0  0  0  0
 17 20  2  0  0  0  0
 17 21  1  0  0  0  0
 18 22  1  0  0  0  0
 18 37  1  0  0  0  0
 19 24  1  0  0  0  0
 19 25  2  0  0  0  0
 20 23  1  0  0  0  0
 20 38  1  0  0  0  0
 21 39  1  0  0  0  0
 21 40  1  0  0  0  0
 22 23  2  0  0  0  0
 22 41  1  0  0  0  0
 23 42  1  0  0  0  0
 24 26  2  0  0  0  0
 25 27  1  0  0  0  0
 25 43  1  0  0  0  0
 26 28  1  0  0  0  0
 26 44  1  0  0  0  0
 27 28  2  0  0  0  0
 27 45  1  0  0  0  0
 28 46  1  0  0  0  0
M  END
> <PUBCHEM_COMPOUND_CID>
91329018

> <PUBCHEM_COMPOUND_CANONICALIZED>
1

> <PUBCHEM_CACTVS_COMPLEXITY>
516

> <PUBCHEM_CACTVS_HBOND_ACCEPTOR>
9

> <PUBCHEM_CACTVS_HBOND_DONOR>
5

> <PUBCHEM_CACTVS_ROTATABLE_BOND>
6

> <PUBCHEM_CACTVS_SUBSKEYS>
AAADceB4PAAAAAAAAAAAAAAAAAAAAAAAAAA0YIAAAAAAAAABQAAAGgAACAAADBSwmAMwDoAABgCIAiDSCAACCAAkIAAIiAEGCMgdNzaGNRqieWCl4BEPuYfI6CiOAAAAAAAIAAAAAAAAABAAAAAAAAAAAA==

> <PUBCHEM_IUPAC_OPENEYE_NAME>
[(2R,3S,4R,5R,6R)-3,4,5-trihydroxy-6-[2-(hydroxymethyl)phenoxy]tetrahydropyran-2-yl] 2-hydroxybenzoate

> <PUBCHEM_IUPAC_CAS_NAME>
2-hydroxybenzoic acid [(2R,3S,4R,5R,6R)-3,4,5-trihydroxy-6-[2-(hydroxymethyl)phenoxy]-2-oxanyl] ester

> <PUBCHEM_IUPAC_NAME_MARKUP>
[(2<I>R</I>,3<I>S</I>,4<I>R</I>,5<I>R</I>,6<I>R</I>)-3,4,5-trihydroxy-6-[2-(hydroxymethyl)phenoxy]oxan-2-yl] 2-hydroxybenzoate

> <PUBCHEM_IUPAC_NAME>
[(2R,3S,4R,5R,6R)-3,4,5-trihydroxy-6-[2-(hydroxymethyl)phenoxy]oxan-2-yl] 2-hydroxybenzoate

> <PUBCHEM_IUPAC_SYSTEMATIC_NAME>
[(2R,3S,4R,5R,6R)-6-[2-(hydroxymethyl)phenoxy]-3,4,5-tris(oxidanyl)oxan-2-yl] 2-oxidanylbenzoate

> <PUBCHEM_IUPAC_TRADITIONAL_NAME>
2-hydroxybenzoic acid [(2R,3S,4R,5R,6R)-3,4,5-trihydroxy-6-(2-methylolphenoxy)tetrahydropyran-2-yl] ester

> <PUBCHEM_IUPAC_INCHI>
InChI=1S/C19H20O9/c20-9-10-5-1-4-8-13(10)26-18-15(23)14(22)16(24)19(28-18)27-17(25)11-6-2-3-7-12(11)21/h1-8,14-16,18-24H,9H2/t14-,15-,16+,18-,19+/m1/s1

> <PUBCHEM_IUPAC_INCHIKEY>
CCEOSEICNDIDEH-VYDRJQSISA-N

> <PUBCHEM_XLOGP3>
0.8

> <PUBCHEM_EXACT_MASS>
392.11073221

> <PUBCHEM_MOLECULAR_FORMULA>
C19H20O9

> <PUBCHEM_MOLECULAR_WEIGHT>
392.4

> <PUBCHEM_OPENEYE_CAN_SMILES>
C1=CC=C(C(=C1)CO)OC2C(C(C(C(O2)OC(=O)C3=CC=CC=C3O)O)O)O

> <PUBCHEM_OPENEYE_ISO_SMILES>
C1=CC=C(C(=C1)CO)O[C@H]2[C@@H]([C@H]([C@@H]([C@H](O2)OC(=O)C3=CC=CC=C3O)O)O)O

> <PUBCHEM_CACTVS_TPSA>
146

> <PUBCHEM_MONOISOTOPIC_WEIGHT>
392.11073221

> <PUBCHEM_TOTAL_CHARGE>
0

> <PUBCHEM_HEAVY_ATOM_COUNT>
28

> <PUBCHEM_ATOM_DEF_STEREO_COUNT>
5

> <PUBCHEM_ATOM_UDEF_STEREO_COUNT>
0

> <PUBCHEM_BOND_DEF_STEREO_COUNT>
0

> <PUBCHEM_BOND_UDEF_STEREO_COUNT>
0

> <PUBCHEM_ISOTOPIC_ATOM_COUNT>
0

> <PUBCHEM_COMPONENT_COUNT>
1

> <PUBCHEM_CACTVS_TAUTO_COUNT>
-1

> <PUBCHEM_COORDINATE_TYPE>
1
5
255

> <PUBCHEM_BONDANNOTATIONS>
15  17  8
15  18  8
17  20  8
18  22  8
19  24  8
19  25  8
13  2  6
20  23  8
22  23  8
24  26  8
25  27  8
26  28  8
27  28  8
10  3  6
11  4  5
12  5  5
14  6  6

$$$$
