 
  -OEChem-10192104072D

 54 56  0     1  0  0  0  0  0999 V2000
    9.7942    0.6550    0.0000 O   0  0  0  0  0  0  0  0  0  0  0  0
    7.1962    0.1550    0.0000 O   0  0  0  0  0  0  0  0  0  0  0  0
    7.1962    2.1550    0.0000 O   0  0  0  0  0  0  0  0  0  0  0  0
    8.9282    3.1550    0.0000 O   0  0  0  0  0  0  0  0  0  0  0  0
   11.5263    1.6550    0.0000 O   0  0  0  0  0  0  0  0  0  0  0  0
   10.6603   -2.8450    0.0000 O   0  0  0  0  0  0  0  0  0  0  0  0
    5.4641    0.1550    0.0000 O   0  0  0  0  0  0  0  0  0  0  0  0
    3.7320    0.1550    0.0000 O   0  0  0  0  0  0  0  0  0  0  0  0
    2.0000   -2.8450    0.0000 O   0  0  0  0  0  0  0  0  0  0  0  0
    8.0622    0.6550    0.0000 C   0  0  1  0  0  0  0  0  0  0  0  0
    8.9282    0.1550    0.0000 C   0  0  3  0  0  0  0  0  0  0  0  0
    8.0622    1.6550    0.0000 C   0  0  2  0  0  0  0  0  0  0  0  0
    8.9282    2.1550    0.0000 C   0  0  2  0  0  0  0  0  0  0  0  0
    9.7942    1.6550    0.0000 C   0  0  1  0  0  0  0  0  0  0  0  0
    8.9282   -0.8450    0.0000 C   0  0  0  0  0  0  0  0  0  0  0  0
   10.6603    2.1550    0.0000 C   0  0  0  0  0  0  0  0  0  0  0  0
    8.0622   -1.3450    0.0000 C   0  0  0  0  0  0  0  0  0  0  0  0
    9.7942   -1.3450    0.0000 C   0  0  0  0  0  0  0  0  0  0  0  0
    7.1962   -0.8450    0.0000 C   0  0  0  0  0  0  0  0  0  0  0  0
    8.0622   -2.3450    0.0000 C   0  0  0  0  0  0  0  0  0  0  0  0
    9.7942   -2.3450    0.0000 C   0  0  0  0  0  0  0  0  0  0  0  0
    6.3301   -1.3450    0.0000 C   0  0  0  0  0  0  0  0  0  0  0  0
    8.9282   -2.8450    0.0000 C   0  0  0  0  0  0  0  0  0  0  0  0
    5.4641   -0.8450    0.0000 C   0  0  0  0  0  0  0  0  0  0  0  0
    4.5981   -1.3450    0.0000 C   0  0  0  0  0  0  0  0  0  0  0  0
    3.7320   -0.8450    0.0000 C   0  0  0  0  0  0  0  0  0  0  0  0
    4.5981   -2.3450    0.0000 C   0  0  0  0  0  0  0  0  0  0  0  0
    2.8660   -1.3450    0.0000 C   0  0  0  0  0  0  0  0  0  0  0  0
    3.7320   -2.8450    0.0000 C   0  0  0  0  0  0  0  0  0  0  0  0
    2.8660   -2.3450    0.0000 C   0  0  0  0  0  0  0  0  0  0  0  0
    8.0622    0.0350    0.0000 H   0  0  0  0  0  0  0  0  0  0  0  0
    9.4651   -0.1550    0.0000 H   0  0  0  0  0  0  0  0  0  0  0  0
    8.0622    2.2750    0.0000 H   0  0  0  0  0  0  0  0  0  0  0  0
    9.4651    2.4650    0.0000 H   0  0  0  0  0  0  0  0  0  0  0  0
   10.3312    1.3450    0.0000 H   0  0  0  0  0  0  0  0  0  0  0  0
   11.0588    2.6300    0.0000 H   0  0  0  0  0  0  0  0  0  0  0  0
   10.2617    2.6300    0.0000 H   0  0  0  0  0  0  0  0  0  0  0  0
    6.6592    0.4650    0.0000 H   0  0  0  0  0  0  0  0  0  0  0  0
    7.1962    2.7750    0.0000 H   0  0  0  0  0  0  0  0  0  0  0  0
   10.3312   -1.0350    0.0000 H   0  0  0  0  0  0  0  0  0  0  0  0
    9.4651    3.4650    0.0000 H   0  0  0  0  0  0  0  0  0  0  0  0
    7.5947   -0.3701    0.0000 H   0  0  0  0  0  0  0  0  0  0  0  0
    6.7976   -0.3701    0.0000 H   0  0  0  0  0  0  0  0  0  0  0  0
    7.5252   -2.6550    0.0000 H   0  0  0  0  0  0  0  0  0  0  0  0
    5.9316   -1.8200    0.0000 H   0  0  0  0  0  0  0  0  0  0  0  0
    6.7287   -1.8200    0.0000 H   0  0  0  0  0  0  0  0  0  0  0  0
    8.9282   -3.4650    0.0000 H   0  0  0  0  0  0  0  0  0  0  0  0
   12.0632    1.9650    0.0000 H   0  0  0  0  0  0  0  0  0  0  0  0
   10.6603   -3.4650    0.0000 H   0  0  0  0  0  0  0  0  0  0  0  0
    5.1350   -2.6550    0.0000 H   0  0  0  0  0  0  0  0  0  0  0  0
    2.3291   -1.0350    0.0000 H   0  0  0  0  0  0  0  0  0  0  0  0
    3.7320   -3.4650    0.0000 H   0  0  0  0  0  0  0  0  0  0  0  0
    3.1951    0.4650    0.0000 H   0  0  0  0  0  0  0  0  0  0  0  0
    2.0000   -3.4650    0.0000 H   0  0  0  0  0  0  0  0  0  0  0  0
  1 11  1  0  0  0  0
  1 14  1  0  0  0  0
 10  2  1  6  0  0  0
  2 38  1  0  0  0  0
 12  3  1  1  0  0  0
  3 39  1  0  0  0  0
 13  4  1  1  0  0  0
  4 41  1  0  0  0  0
  5 16  1  0  0  0  0
  5 48  1  0  0  0  0
  6 21  1  0  0  0  0
  6 49  1  0  0  0  0
  7 24  2  0  0  0  0
  8 26  1  0  0  0  0
  8 53  1  0  0  0  0
  9 30  1  0  0  0  0
  9 54  1  0  0  0  0
 10 11  1  0  0  0  0
 10 12  1  0  0  0  0
 10 31  1  0  0  0  0
 11 15  1  0  0  0  0
 11 32  1  0  0  0  0
 12 13  1  0  0  0  0
 12 33  1  0  0  0  0
 13 14  1  0  0  0  0
 13 34  1  0  0  0  0
 14 16  1  1  0  0  0
 14 35  1  0  0  0  0
 15 17  2  0  0  0  0
 15 18  1  0  0  0  0
 16 36  1  0  0  0  0
 16 37  1  0  0  0  0
 17 19  1  0  0  0  0
 17 20  1  0  0  0  0
 18 21  2  0  0  0  0
 18 40  1  0  0  0  0
 19 22  1  0  0  0  0
 19 42  1  0  0  0  0
 19 43  1  0  0  0  0
 20 23  2  0  0  0  0
 20 44  1  0  0  0  0
 21 23  1  0  0  0  0
 22 24  1  0  0  0  0
 22 45  1  0  0  0  0
 22 46  1  0  0  0  0
 23 47  1  0  0  0  0
 24 25  1  0  0  0  0
 25 26  2  0  0  0  0
 25 27  1  0  0  0  0
 26 28  1  0  0  0  0
 27 29  2  0  0  0  0
 27 50  1  0  0  0  0
 28 30  2  0  0  0  0
 28 51  1  0  0  0  0
 29 30  1  0  0  0  0
 29 52  1  0  0  0  0
M  END
> <PUBCHEM_COMPOUND_CID>
69350379

> <PUBCHEM_COMPOUND_CANONICALIZED>
1

> <PUBCHEM_CACTVS_COMPLEXITY>
573

> <PUBCHEM_CACTVS_HBOND_ACCEPTOR>
9

> <PUBCHEM_CACTVS_HBOND_DONOR>
7

> <PUBCHEM_CACTVS_ROTATABLE_BOND>
6

> <PUBCHEM_CACTVS_SUBSKEYS>
AAADceB4PAAAAAAAAAAAAAAAAAAAAAAAAAA0YIAAAAAAAAABQAAAGgAACAAADBSgmAIwBoAABgCIAqBSAAACAAAkIAAIiAEGCMgJNzaCNRqCcUAl4BULuYfI7PTOoAABCAAYAABAAAIQADAAAAAAAAAAAA==

> <PUBCHEM_IUPAC_OPENEYE_NAME>
1-(2,4-dihydroxyphenyl)-3-[4-hydroxy-2-[(3R,4R,5R,6R)-3,4,5-trihydroxy-6-(hydroxymethyl)tetrahydropyran-2-yl]phenyl]propan-1-one

> <PUBCHEM_IUPAC_CAS_NAME>
1-(2,4-dihydroxyphenyl)-3-[4-hydroxy-2-[(3R,4R,5R,6R)-3,4,5-trihydroxy-6-(hydroxymethyl)-2-oxanyl]phenyl]-1-propanone

> <PUBCHEM_IUPAC_NAME_MARKUP>
1-(2,4-dihydroxyphenyl)-3-[4-hydroxy-2-[(3<I>R</I>,4<I>R</I>,5<I>R</I>,6<I>R</I>)-3,4,5-trihydroxy-6-(hydroxymethyl)oxan-2-yl]phenyl]propan-1-one

> <PUBCHEM_IUPAC_NAME>
1-(2,4-dihydroxyphenyl)-3-[4-hydroxy-2-[(3R,4R,5R,6R)-3,4,5-trihydroxy-6-(hydroxymethyl)oxan-2-yl]phenyl]propan-1-one

> <PUBCHEM_IUPAC_SYSTEMATIC_NAME>
1-[2,4-bis(oxidanyl)phenyl]-3-[2-[(3R,4R,5R,6R)-6-(hydroxymethyl)-3,4,5-tris(oxidanyl)oxan-2-yl]-4-oxidanyl-phenyl]propan-1-one

> <PUBCHEM_IUPAC_TRADITIONAL_NAME>
1-(2,4-dihydroxyphenyl)-3-[4-hydroxy-2-[(3R,4R,5R,6R)-3,4,5-trihydroxy-6-methylol-tetrahydropyran-2-yl]phenyl]propan-1-one

> <PUBCHEM_IUPAC_INCHI>
InChI=1S/C21H24O9/c22-9-17-18(27)19(28)20(29)21(30-17)14-7-11(23)3-1-10(14)2-6-15(25)13-5-4-12(24)8-16(13)26/h1,3-5,7-8,17-24,26-29H,2,6,9H2/t17-,18+,19+,20-,21?/m1/s1

> <PUBCHEM_IUPAC_INCHIKEY>
NBVDAOZWMBBJOM-IRWSCCLFSA-N

> <PUBCHEM_XLOGP3_AA>
0.5

> <PUBCHEM_EXACT_MASS>
420.14203234

> <PUBCHEM_MOLECULAR_FORMULA>
C21H24O9

> <PUBCHEM_MOLECULAR_WEIGHT>
420.4

> <PUBCHEM_OPENEYE_CAN_SMILES>
C1=CC(=C(C=C1O)C2C(C(C(C(O2)CO)O)O)O)CCC(=O)C3=C(C=C(C=C3)O)O

> <PUBCHEM_OPENEYE_ISO_SMILES>
C1=CC(=C(C=C1O)C2[C@@H]([C@H]([C@H]([C@H](O2)CO)O)O)O)CCC(=O)C3=C(C=C(C=C3)O)O

> <PUBCHEM_CACTVS_TPSA>
168

> <PUBCHEM_MONOISOTOPIC_WEIGHT>
420.14203234

> <PUBCHEM_TOTAL_CHARGE>
0

> <PUBCHEM_HEAVY_ATOM_COUNT>
30

> <PUBCHEM_ATOM_DEF_STEREO_COUNT>
4

> <PUBCHEM_ATOM_UDEF_STEREO_COUNT>
1

> <PUBCHEM_BOND_DEF_STEREO_COUNT>
0

> <PUBCHEM_BOND_UDEF_STEREO_COUNT>
0

> <PUBCHEM_ISOTOPIC_ATOM_COUNT>
0

> <PUBCHEM_COMPONENT_COUNT>
1

> <PUBCHEM_CACTVS_TAUTO_COUNT>
-1

> <PUBCHEM_COORDINATE_TYPE>
1
5
255

> <PUBCHEM_BONDANNOTATIONS>
11  15  3
14  16  5
15  17  8
15  18  8
17  20  8
18  21  8
10  2  6
20  23  8
21  23  8
25  26  8
25  27  8
26  28  8
27  29  8
28  30  8
29  30  8
12  3  5
13  4  5

$$$$
