 
  -OEChem-10192103412D

 98101  0     1  0  0  0  0  0999 V2000
    8.9282   -0.5000    0.0000 O   0  0  0  0  0  0  0  0  0  0  0  0
   10.6603    2.5000    0.0000 O   0  0  0  0  0  0  0  0  0  0  0  0
    8.9282    2.5000    0.0000 O   0  0  0  0  0  0  0  0  0  0  0  0
    5.4641   -2.5000    0.0000 O   0  0  0  0  0  0  0  0  0  0  0  0
    7.1962   -0.5000    0.0000 O   0  0  0  0  0  0  0  0  0  0  0  0
    6.3301   -4.0000    0.0000 O   0  0  0  0  0  0  0  0  0  0  0  0
   10.6603    5.5000    0.0000 O   0  0  0  0  0  0  0  0  0  0  0  0
   10.6603    0.5000    0.0000 O   0  0  0  0  0  0  0  0  0  0  0  0
    7.1962    0.5000    0.0000 O   0  0  0  0  0  0  0  0  0  0  0  0
    7.1962   -3.5000    0.0000 O   0  0  0  0  0  0  0  0  0  0  0  0
    8.9282   -2.5000    0.0000 O   0  0  0  0  0  0  0  0  0  0  0  0
    8.9282    3.5000    0.0000 O   0  0  0  0  0  0  0  0  0  0  0  0
    3.7320   -5.5000    0.0000 O   0  0  0  0  0  0  0  0  0  0  0  0
    5.4641   -6.5000    0.0000 O   0  0  0  0  0  0  0  0  0  0  0  0
   12.3923    5.5000    0.0000 O   0  0  0  0  0  0  0  0  0  0  0  0
    7.1962    3.5000    0.0000 O   0  0  0  0  0  0  0  0  0  0  0  0
    8.9282    6.5000    0.0000 O   0  0  0  0  0  0  0  0  0  0  0  0
    5.4641    0.5000    0.0000 O   0  0  0  0  0  0  0  0  0  0  0  0
    8.0622   -5.0000    0.0000 O   0  0  0  0  0  0  0  0  0  0  0  0
    4.5981   -1.0000    0.0000 O   0  0  0  0  0  0  0  0  0  0  0  0
   13.2583    5.0000    0.0000 O   0  0  0  0  0  0  0  0  0  0  0  0
    2.0000   -3.5000    0.0000 O   0  0  0  0  0  0  0  0  0  0  0  0
   12.3923    3.5000    0.0000 N   0  0  0  0  0  0  0  0  0  0  0  0
    3.7320   -3.5000    0.0000 N   0  0  0  0  0  0  0  0  0  0  0  0
    8.9282    0.5000    0.0000 C   0  0  2  0  0  0  0  0  0  0  0  0
    9.7942    1.0000    0.0000 C   0  0  2  0  0  0  0  0  0  0  0  0
    8.0622    1.0000    0.0000 C   0  0  2  0  0  0  0  0  0  0  0  0
    9.7942    2.0000    0.0000 C   0  0  2  0  0  0  0  0  0  0  0  0
   10.6603    3.5000    0.0000 C   0  0  2  0  0  0  0  0  0  0  0  0
    6.3301   -2.0000    0.0000 C   0  0  1  0  0  0  0  0  0  0  0  0
    8.0622   -1.0000    0.0000 C   0  0  2  0  0  0  0  0  0  0  0  0
    7.1962   -2.5000    0.0000 C   0  0  1  0  0  0  0  0  0  0  0  0
    8.0622    2.0000    0.0000 C   0  0  1  0  0  0  0  0  0  0  0  0
    8.0622   -2.0000    0.0000 C   0  0  1  0  0  0  0  0  0  0  0  0
   11.5263    4.0000    0.0000 C   0  0  2  0  0  0  0  0  0  0  0  0
    9.7942    4.0000    0.0000 C   0  0  2  0  0  0  0  0  0  0  0  0
    6.3301   -1.0000    0.0000 C   0  0  1  0  0  0  0  0  0  0  0  0
    5.4641   -3.5000    0.0000 C   0  0  2  0  0  0  0  0  0  0  0  0
    4.5981   -4.0000    0.0000 C   0  0  1  0  0  0  0  0  0  0  0  0
    9.7942    5.0000    0.0000 C   0  0  1  0  0  0  0  0  0  0  0  0
    4.5981   -5.0000    0.0000 C   0  0  2  0  0  0  0  0  0  0  0  0
   11.5263    5.0000    0.0000 C   0  0  3  0  0  0  0  0  0  0  0  0
    5.4641   -5.5000    0.0000 C   0  0  1  0  0  0  0  0  0  0  0  0
    6.3301   -5.0000    0.0000 C   0  0  1  0  0  0  0  0  0  0  0  0
    7.1962    2.5000    0.0000 C   0  0  0  0  0  0  0  0  0  0  0  0
    8.9282    5.5000    0.0000 C   0  0  0  0  0  0  0  0  0  0  0  0
    5.4641   -0.5000    0.0000 C   0  0  0  0  0  0  0  0  0  0  0  0
    7.1962   -5.5000    0.0000 C   0  0  0  0  0  0  0  0  0  0  0  0
   13.2583    4.0000    0.0000 C   0  0  0  0  0  0  0  0  0  0  0  0
    2.8660   -4.0000    0.0000 C   0  0  0  0  0  0  0  0  0  0  0  0
   14.1244    3.5000    0.0000 C   0  0  0  0  0  0  0  0  0  0  0  0
    2.8660   -5.0000    0.0000 C   0  0  0  0  0  0  0  0  0  0  0  0
    8.3913    0.1900    0.0000 H   0  0  0  0  0  0  0  0  0  0  0  0
    9.7942    0.3800    0.0000 H   0  0  0  0  0  0  0  0  0  0  0  0
    8.0622    0.3800    0.0000 H   0  0  0  0  0  0  0  0  0  0  0  0
    9.7942    2.6200    0.0000 H   0  0  0  0  0  0  0  0  0  0  0  0
   11.1972    3.1900    0.0000 H   0  0  0  0  0  0  0  0  0  0  0  0
    5.7932   -1.6900    0.0000 H   0  0  0  0  0  0  0  0  0  0  0  0
    8.0622   -0.3800    0.0000 H   0  0  0  0  0  0  0  0  0  0  0  0
    6.6592   -2.8100    0.0000 H   0  0  0  0  0  0  0  0  0  0  0  0
    8.0622    2.6200    0.0000 H   0  0  0  0  0  0  0  0  0  0  0  0
    8.0622   -2.6200    0.0000 H   0  0  0  0  0  0  0  0  0  0  0  0
   11.5263    3.3800    0.0000 H   0  0  0  0  0  0  0  0  0  0  0  0
    9.2573    4.3100    0.0000 H   0  0  0  0  0  0  0  0  0  0  0  0
    6.3301   -0.3800    0.0000 H   0  0  0  0  0  0  0  0  0  0  0  0
    4.9272   -3.1900    0.0000 H   0  0  0  0  0  0  0  0  0  0  0  0
    4.5981   -3.3800    0.0000 H   0  0  0  0  0  0  0  0  0  0  0  0
    9.7942    5.6200    0.0000 H   0  0  0  0  0  0  0  0  0  0  0  0
    4.5981   -5.6200    0.0000 H   0  0  0  0  0  0  0  0  0  0  0  0
    6.0010   -5.8100    0.0000 H   0  0  0  0  0  0  0  0  0  0  0  0
   12.0632    4.6900    0.0000 H   0  0  0  0  0  0  0  0  0  0  0  0
    6.8671   -4.6900    0.0000 H   0  0  0  0  0  0  0  0  0  0  0  0
    6.5856    2.6077    0.0000 H   0  0  0  0  0  0  0  0  0  0  0  0
    6.9841    1.9174    0.0000 H   0  0  0  0  0  0  0  0  0  0  0  0
   12.3923    2.8800    0.0000 H   0  0  0  0  0  0  0  0  0  0  0  0
    8.3176    5.6077    0.0000 H   0  0  0  0  0  0  0  0  0  0  0  0
    8.7162    4.9174    0.0000 H   0  0  0  0  0  0  0  0  0  0  0  0
   10.6603   -0.1200    0.0000 H   0  0  0  0  0  0  0  0  0  0  0  0
    6.6592    0.8100    0.0000 H   0  0  0  0  0  0  0  0  0  0  0  0
    3.7320   -2.8800    0.0000 H   0  0  0  0  0  0  0  0  0  0  0  0
    6.7976   -5.9750    0.0000 H   0  0  0  0  0  0  0  0  0  0  0  0
    7.5947   -5.9750    0.0000 H   0  0  0  0  0  0  0  0  0  0  0  0
    7.7331   -3.8100    0.0000 H   0  0  0  0  0  0  0  0  0  0  0  0
    8.9282   -3.1200    0.0000 H   0  0  0  0  0  0  0  0  0  0  0  0
    8.3913    3.8100    0.0000 H   0  0  0  0  0  0  0  0  0  0  0  0
    3.7320   -6.1200    0.0000 H   0  0  0  0  0  0  0  0  0  0  0  0
    6.0010   -6.8100    0.0000 H   0  0  0  0  0  0  0  0  0  0  0  0
   12.3923    6.1200    0.0000 H   0  0  0  0  0  0  0  0  0  0  0  0
    6.6592    3.8100    0.0000 H   0  0  0  0  0  0  0  0  0  0  0  0
    8.3913    6.8100    0.0000 H   0  0  0  0  0  0  0  0  0  0  0  0
    6.0010    0.8100    0.0000 H   0  0  0  0  0  0  0  0  0  0  0  0
    8.5991   -5.3100    0.0000 H   0  0  0  0  0  0  0  0  0  0  0  0
   13.8144    2.9631    0.0000 H   0  0  0  0  0  0  0  0  0  0  0  0
   14.6613    3.1900    0.0000 H   0  0  0  0  0  0  0  0  0  0  0  0
   14.4344    4.0369    0.0000 H   0  0  0  0  0  0  0  0  0  0  0  0
    2.2460   -5.0000    0.0000 H   0  0  0  0  0  0  0  0  0  0  0  0
    2.8660   -5.6200    0.0000 H   0  0  0  0  0  0  0  0  0  0  0  0
    3.4860   -5.0000    0.0000 H   0  0  0  0  0  0  0  0  0  0  0  0
 25  1  1  1  0  0  0
 31  1  1  1  0  0  0
 28  2  1  1  0  0  0
 29  2  1  1  0  0  0
  3 28  1  0  0  0  0
  3 33  1  0  0  0  0
 30  4  1  6  0  0  0
 38  4  1  6  0  0  0
  5 31  1  0  0  0  0
  5 37  1  0  0  0  0
  6 38  1  0  0  0  0
  6 44  1  0  0  0  0
  7 40  1  0  0  0  0
  7 42  1  0  0  0  0
 26  8  1  6  0  0  0
  8 78  1  0  0  0  0
 27  9  1  1  0  0  0
  9 79  1  0  0  0  0
 32 10  1  1  0  0  0
 10 83  1  0  0  0  0
 34 11  1  6  0  0  0
 11 84  1  0  0  0  0
 36 12  1  1  0  0  0
 12 85  1  0  0  0  0
 41 13  1  6  0  0  0
 13 86  1  0  0  0  0
 43 14  1  1  0  0  0
 14 87  1  0  0  0  0
 15 42  1  0  0  0  0
 15 88  1  0  0  0  0
 16 45  1  0  0  0  0
 16 89  1  0  0  0  0
 17 46  1  0  0  0  0
 17 90  1  0  0  0  0
 18 47  1  0  0  0  0
 18 91  1  0  0  0  0
 19 48  1  0  0  0  0
 19 92  1  0  0  0  0
 20 47  2  0  0  0  0
 21 49  2  0  0  0  0
 22 50  2  0  0  0  0
 35 23  1  6  0  0  0
 23 49  1  0  0  0  0
 23 75  1  0  0  0  0
 39 24  1  1  0  0  0
 24 50  1  0  0  0  0
 24 80  1  0  0  0  0
 25 26  1  0  0  0  0
 25 27  1  0  0  0  0
 25 53  1  0  0  0  0
 26 28  1  0  0  0  0
 26 54  1  0  0  0  0
 27 33  1  0  0  0  0
 27 55  1  0  0  0  0
 28 56  1  0  0  0  0
 29 35  1  0  0  0  0
 29 36  1  0  0  0  0
 29 57  1  0  0  0  0
 30 32  1  0  0  0  0
 30 37  1  0  0  0  0
 30 58  1  0  0  0  0
 31 34  1  0  0  0  0
 31 59  1  0  0  0  0
 32 34  1  0  0  0  0
 32 60  1  0  0  0  0
 33 45  1  1  0  0  0
 33 61  1  0  0  0  0
 34 62  1  0  0  0  0
 35 42  1  0  0  0  0
 35 63  1  0  0  0  0
 36 40  1  0  0  0  0
 36 64  1  0  0  0  0
 37 47  1  1  0  0  0
 37 65  1  0  0  0  0
 38 39  1  0  0  0  0
 38 66  1  0  0  0  0
 39 41  1  0  0  0  0
 39 67  1  0  0  0  0
 40 46  1  1  0  0  0
 40 68  1  0  0  0  0
 41 43  1  0  0  0  0
 41 69  1  0  0  0  0
 42 71  1  0  0  0  0
 43 44  1  0  0  0  0
 43 70  1  0  0  0  0
 44 48  1  6  0  0  0
 44 72  1  0  0  0  0
 45 73  1  0  0  0  0
 45 74  1  0  0  0  0
 46 76  1  0  0  0  0
 46 77  1  0  0  0  0
 48 81  1  0  0  0  0
 48 82  1  0  0  0  0
 49 51  1  0  0  0  0
 50 52  1  0  0  0  0
 51 93  1  0  0  0  0
 51 94  1  0  0  0  0
 51 95  1  0  0  0  0
 52 96  1  0  0  0  0
 52 97  1  0  0  0  0
 52 98  1  0  0  0  0
M  END
> <PUBCHEM_COMPOUND_CID>
71298094

> <PUBCHEM_COMPOUND_CANONICALIZED>
1

> <PUBCHEM_CACTVS_COMPLEXITY>
1220

> <PUBCHEM_CACTVS_HBOND_ACCEPTOR>
22

> <PUBCHEM_CACTVS_HBOND_DONOR>
14

> <PUBCHEM_CACTVS_ROTATABLE_BOND>
12

> <PUBCHEM_CACTVS_SUBSKEYS>
AAADcfB7PgAAAAAAAAAAAAAAAAAAAAAAAAAkSJEgAAAAAAAAAAAAHgAQCAAACDzxgAcCCALABgAIAAGQGAIAAAAAAAAAAIFIAAATEBYAgAQnQAAHNgCXAAH6fA9AAAAAAAAAAAAAAAAAAAAAAAAAAAAAAA==

> <PUBCHEM_IUPAC_OPENEYE_NAME>
(2S,3S,4R,5R,6R)-3-[(2S,3R,4R,5S,6R)-3-acetamido-4,5-dihydroxy-6-(hydroxymethyl)tetrahydropyran-2-yl]oxy-6-[(2R,3R,4S,5S,6R)-2-[(3R,4R,5R,6R)-3-acetamido-2,5-dihydroxy-6-(hydroxymethyl)tetrahydropyran-4-yl]oxy-3,5-dihydroxy-6-(hydroxymethyl)tetrahydropyran-4-yl]oxy-4,5-dihydroxy-tetrahydropyran-2-carboxylic acid

> <PUBCHEM_IUPAC_CAS_NAME>
(2S,3S,4R,5R,6R)-3-[[(2S,3R,4R,5S,6R)-3-acetamido-4,5-dihydroxy-6-(hydroxymethyl)-2-oxanyl]oxy]-6-[[(2R,3R,4S,5S,6R)-2-[[(3R,4R,5R,6R)-3-acetamido-2,5-dihydroxy-6-(hydroxymethyl)-4-oxanyl]oxy]-3,5-dihydroxy-6-(hydroxymethyl)-4-oxanyl]oxy]-4,5-dihydroxy-2-oxanecarboxylic acid

> <PUBCHEM_IUPAC_NAME_MARKUP>
(2<I>S</I>,3<I>S</I>,4<I>R</I>,5<I>R</I>,6<I>R</I>)-3-[(2<I>S</I>,3<I>R</I>,4<I>R</I>,5<I>S</I>,6<I>R</I>)-3-acetamido-4,5-dihydroxy-6-(hydroxymethyl)oxan-2-yl]oxy-6-[(2<I>R</I>,3<I>R</I>,4<I>S</I>,5<I>S</I>,6<I>R</I>)-2-[(3<I>R</I>,4<I>R</I>,5<I>R</I>,6<I>R</I>)-3-acetamido-2,5-dihydroxy-6-(hydroxymethyl)oxan-4-yl]oxy-3,5-dihydroxy-6-(hydroxymethyl)oxan-4-yl]oxy-4,5-dihydroxyoxane-2-carboxylic acid

> <PUBCHEM_IUPAC_NAME>
(2S,3S,4R,5R,6R)-3-[(2S,3R,4R,5S,6R)-3-acetamido-4,5-dihydroxy-6-(hydroxymethyl)oxan-2-yl]oxy-6-[(2R,3R,4S,5S,6R)-2-[(3R,4R,5R,6R)-3-acetamido-2,5-dihydroxy-6-(hydroxymethyl)oxan-4-yl]oxy-3,5-dihydroxy-6-(hydroxymethyl)oxan-4-yl]oxy-4,5-dihydroxyoxane-2-carboxylic acid

> <PUBCHEM_IUPAC_SYSTEMATIC_NAME>
(2S,3S,4R,5R,6R)-3-[(2S,3R,4R,5S,6R)-3-acetamido-6-(hydroxymethyl)-4,5-bis(oxidanyl)oxan-2-yl]oxy-6-[(2R,3R,4S,5S,6R)-2-[(2R,3R,4R,5R)-5-acetamido-2-(hydroxymethyl)-3,6-bis(oxidanyl)oxan-4-yl]oxy-6-(hydroxymethyl)-3,5-bis(oxidanyl)oxan-4-yl]oxy-4,5-bis(oxidanyl)oxane-2-carboxylic acid

> <PUBCHEM_IUPAC_TRADITIONAL_NAME>
(2S,3S,4R,5R,6R)-3-[(2S,3R,4R,5S,6R)-3-acetamido-4,5-dihydroxy-6-methylol-tetrahydropyran-2-yl]oxy-6-[(2R,3R,4S,5S,6R)-2-[(3R,4R,5R,6R)-3-acetamido-2,5-dihydroxy-6-methylol-tetrahydropyran-4-yl]oxy-3,5-dihydroxy-6-methylol-tetrahydropyran-4-yl]oxy-4,5-dihydroxy-tetrahydropyran-2-carboxylic acid

> <PUBCHEM_IUPAC_INCHI>
InChI=1S/C28H46N2O22/c1-6(34)29-11-16(39)13(36)8(3-31)47-26(11)51-22-17(40)18(41)27(52-23(22)24(43)44)50-21-15(38)10(5-33)48-28(19(21)42)49-20-12(30-7(2)35)25(45)46-9(4-32)14(20)37/h8-23,25-28,31-33,36-42,45H,3-5H2,1-2H3,(H,29,34)(H,30,35)(H,43,44)/t8-,9-,10-,11-,12-,13-,14+,15+,16-,17-,18-,19-,20-,21+,22+,23+,25?,26+,27-,28+/m1/s1

> <PUBCHEM_IUPAC_INCHIKEY>
ZGYRBEPNVJSACT-OKDQVWNGSA-N

> <PUBCHEM_XLOGP3_AA>
-7.7

> <PUBCHEM_EXACT_MASS>
762.25422110

> <PUBCHEM_MOLECULAR_FORMULA>
C28H46N2O22

> <PUBCHEM_MOLECULAR_WEIGHT>
762.7

> <PUBCHEM_OPENEYE_CAN_SMILES>
CC(=O)NC1C(C(C(OC1OC2C(C(C(OC2C(=O)O)OC3C(C(OC(C3O)OC4C(C(OC(C4O)CO)O)NC(=O)C)CO)O)O)O)CO)O)O

> <PUBCHEM_OPENEYE_ISO_SMILES>
CC(=O)N[C@@H]1[C@H]([C@@H]([C@H](O[C@H]1O[C@H]2[C@@H]([C@H]([C@@H](O[C@@H]2C(=O)O)O[C@H]3[C@H]([C@H](O[C@H]([C@@H]3O)O[C@H]4[C@H]([C@H](OC([C@@H]4NC(=O)C)O)CO)O)CO)O)O)O)CO)O)O

> <PUBCHEM_CACTVS_TPSA>
383

> <PUBCHEM_MONOISOTOPIC_WEIGHT>
762.25422110

> <PUBCHEM_TOTAL_CHARGE>
0

> <PUBCHEM_HEAVY_ATOM_COUNT>
52

> <PUBCHEM_ATOM_DEF_STEREO_COUNT>
19

> <PUBCHEM_ATOM_UDEF_STEREO_COUNT>
1

> <PUBCHEM_BOND_DEF_STEREO_COUNT>
0

> <PUBCHEM_BOND_UDEF_STEREO_COUNT>
0

> <PUBCHEM_ISOTOPIC_ATOM_COUNT>
0

> <PUBCHEM_COMPONENT_COUNT>
1

> <PUBCHEM_CACTVS_TAUTO_COUNT>
-1

> <PUBCHEM_COORDINATE_TYPE>
1
5
255

> <PUBCHEM_BONDANNOTATIONS>
25  1  5
31  1  5
32  10  5
34  11  6
36  12  5
41  13  6
43  14  5
42  15  3
28  2  5
29  2  5
35  23  6
39  24  5
33  45  5
37  47  5
30  4  6
38  4  6
40  46  5
44  48  6
26  8  6
27  9  5

$$$$
