 
  -OEChem-10192103452D

 42 44  0     0  0  0  0  0  0999 V2000
    6.0290   -2.2401    0.0000 O   0  0  0  0  0  0  0  0  0  0  0  0
    8.6555    2.3221    0.0000 O   0  0  0  0  0  0  0  0  0  0  0  0
   10.3991   -0.6712    0.0000 O   0  0  0  0  0  0  0  0  0  0  0  0
   10.3914    1.3288    0.0000 O   0  0  0  0  0  0  0  0  0  0  0  0
    6.0174    0.8292    0.0000 O   0  0  0  0  0  0  0  0  0  0  0  0
    4.2690    0.7946    0.0000 O   0  0  0  0  0  0  0  0  0  0  0  0
    2.5369   -0.2054    0.0000 O   0  0  0  0  0  0  0  0  0  0  0  0
    2.5369   -2.2054    0.0000 O   0  0  0  0  0  0  0  0  0  0  0  0
    6.9350   -0.6846    0.0000 C   0  0  0  0  0  0  0  0  0  0  0  0
    7.7991   -0.1813    0.0000 C   0  0  0  0  0  0  0  0  0  0  0  0
    5.1350   -0.7054    0.0000 C   0  0  0  0  0  0  0  0  0  0  0  0
    6.0290   -0.1707    0.0000 C   0  0  0  0  0  0  0  0  0  0  0  0
    5.1350   -1.7054    0.0000 C   0  0  0  0  0  0  0  0  0  0  0  0
    8.6671   -0.6779    0.0000 C   0  0  0  0  0  0  0  0  0  0  0  0
    7.7953    0.8187    0.0000 C   0  0  0  0  0  0  0  0  0  0  0  0
    4.2690   -0.2054    0.0000 C   0  0  0  0  0  0  0  0  0  0  0  0
    6.9350   -1.7262    0.0000 C   0  0  0  0  0  0  0  0  0  0  0  0
    8.6594    1.3221    0.0000 C   0  0  0  0  0  0  0  0  0  0  0  0
    9.5312   -0.1746    0.0000 C   0  0  0  0  0  0  0  0  0  0  0  0
    9.5273    0.8254    0.0000 C   0  0  0  0  0  0  0  0  0  0  0  0
    4.2690   -2.2054    0.0000 C   0  0  0  0  0  0  0  0  0  0  0  0
    3.4030   -0.7054    0.0000 C   0  0  0  0  0  0  0  0  0  0  0  0
    3.4030   -1.7054    0.0000 C   0  0  0  0  0  0  0  0  0  0  0  0
    9.5196    2.8254    0.0000 C   0  0  0  0  0  0  0  0  0  0  0  0
   10.4030   -1.6712    0.0000 C   0  0  0  0  0  0  0  0  0  0  0  0
   11.2593    0.8321    0.0000 C   0  0  0  0  0  0  0  0  0  0  0  0
    8.6694   -1.2979    0.0000 H   0  0  0  0  0  0  0  0  0  0  0  0
    7.2571    1.1267    0.0000 H   0  0  0  0  0  0  0  0  0  0  0  0
    7.4708   -2.0383    0.0000 H   0  0  0  0  0  0  0  0  0  0  0  0
    4.2690   -2.8254    0.0000 H   0  0  0  0  0  0  0  0  0  0  0  0
    3.7320    1.1046    0.0000 H   0  0  0  0  0  0  0  0  0  0  0  0
    2.0000   -0.5154    0.0000 H   0  0  0  0  0  0  0  0  0  0  0  0
    2.5369   -2.8254    0.0000 H   0  0  0  0  0  0  0  0  0  0  0  0
    9.8316    2.2897    0.0000 H   0  0  0  0  0  0  0  0  0  0  0  0
   10.0553    3.1375    0.0000 H   0  0  0  0  0  0  0  0  0  0  0  0
    9.2075    3.3611    0.0000 H   0  0  0  0  0  0  0  0  0  0  0  0
    9.7830   -1.6736    0.0000 H   0  0  0  0  0  0  0  0  0  0  0  0
   10.4053   -2.2912    0.0000 H   0  0  0  0  0  0  0  0  0  0  0  0
   11.0229   -1.6688    0.0000 H   0  0  0  0  0  0  0  0  0  0  0  0
   10.9514    0.2940    0.0000 H   0  0  0  0  0  0  0  0  0  0  0  0
   11.7975    0.5242    0.0000 H   0  0  0  0  0  0  0  0  0  0  0  0
   11.5673    1.3702    0.0000 H   0  0  0  0  0  0  0  0  0  0  0  0
  1 13  1  0  0  0  0
  1 17  1  0  0  0  0
  2 18  1  0  0  0  0
  2 24  1  0  0  0  0
  3 19  1  0  0  0  0
  3 25  1  0  0  0  0
  4 20  1  0  0  0  0
  4 26  1  0  0  0  0
  5 12  2  0  0  0  0
  6 16  1  0  0  0  0
  6 31  1  0  0  0  0
  7 22  1  0  0  0  0
  7 32  1  0  0  0  0
  8 23  1  0  0  0  0
  8 33  1  0  0  0  0
  9 10  1  0  0  0  0
  9 12  1  0  0  0  0
  9 17  2  0  0  0  0
 10 14  2  0  0  0  0
 10 15  1  0  0  0  0
 11 12  1  0  0  0  0
 11 13  2  0  0  0  0
 11 16  1  0  0  0  0
 13 21  1  0  0  0  0
 14 19  1  0  0  0  0
 14 27  1  0  0  0  0
 15 18  2  0  0  0  0
 15 28  1  0  0  0  0
 16 22  2  0  0  0  0
 17 29  1  0  0  0  0
 18 20  1  0  0  0  0
 19 20  2  0  0  0  0
 21 23  2  0  0  0  0
 21 30  1  0  0  0  0
 22 23  1  0  0  0  0
 24 34  1  0  0  0  0
 24 35  1  0  0  0  0
 24 36  1  0  0  0  0
 25 37  1  0  0  0  0
 25 38  1  0  0  0  0
 25 39  1  0  0  0  0
 26 40  1  0  0  0  0
 26 41  1  0  0  0  0
 26 42  1  0  0  0  0
M  END
> <PUBCHEM_COMPOUND_CID>
87519125

> <PUBCHEM_COMPOUND_CANONICALIZED>
1

> <PUBCHEM_CACTVS_COMPLEXITY>
535

> <PUBCHEM_CACTVS_HBOND_ACCEPTOR>
8

> <PUBCHEM_CACTVS_HBOND_DONOR>
3

> <PUBCHEM_CACTVS_ROTATABLE_BOND>
4

> <PUBCHEM_CACTVS_SUBSKEYS>
AAADceB4PAAAAAAAAAAAAAAAAAAAAAAAAAAwYIAAAAAAAACBQAAAGgAACAAADASgmAIyBoAABgCIAqBSAAACCAAkIAAAiAEGiMgNJzaGNRqAcWMl4BULuYfK7PzOIQABCAAIQABCAAIQABCAAAAAAAAAAA==

> <PUBCHEM_IUPAC_OPENEYE_NAME>
5,6,7-trihydroxy-3-(3,4,5-trimethoxyphenyl)chromen-4-one

> <PUBCHEM_IUPAC_CAS_NAME>
5,6,7-trihydroxy-3-(3,4,5-trimethoxyphenyl)-1-benzopyran-4-one

> <PUBCHEM_IUPAC_NAME_MARKUP>
5,6,7-trihydroxy-3-(3,4,5-trimethoxyphenyl)chromen-4-one

> <PUBCHEM_IUPAC_NAME>
5,6,7-trihydroxy-3-(3,4,5-trimethoxyphenyl)chromen-4-one

> <PUBCHEM_IUPAC_SYSTEMATIC_NAME>
5,6,7-tris(oxidanyl)-3-(3,4,5-trimethoxyphenyl)chromen-4-one

> <PUBCHEM_IUPAC_TRADITIONAL_NAME>
5,6,7-trihydroxy-3-(3,4,5-trimethoxyphenyl)chromone

> <PUBCHEM_IUPAC_INCHI>
InChI=1S/C18H16O8/c1-23-12-4-8(5-13(24-2)18(12)25-3)9-7-26-11-6-10(19)16(21)17(22)14(11)15(9)20/h4-7,19,21-22H,1-3H3

> <PUBCHEM_IUPAC_INCHIKEY>
WSXOWLJZLJEONO-UHFFFAOYSA-N

> <PUBCHEM_XLOGP3_AA>
2.6

> <PUBCHEM_EXACT_MASS>
360.08451746

> <PUBCHEM_MOLECULAR_FORMULA>
C18H16O8

> <PUBCHEM_MOLECULAR_WEIGHT>
360.3

> <PUBCHEM_OPENEYE_CAN_SMILES>
COC1=CC(=CC(=C1OC)OC)C2=COC3=C(C2=O)C(=C(C(=C3)O)O)O

> <PUBCHEM_OPENEYE_ISO_SMILES>
COC1=CC(=CC(=C1OC)OC)C2=COC3=C(C2=O)C(=C(C(=C3)O)O)O

> <PUBCHEM_CACTVS_TPSA>
115

> <PUBCHEM_MONOISOTOPIC_WEIGHT>
360.08451746

> <PUBCHEM_TOTAL_CHARGE>
0

> <PUBCHEM_HEAVY_ATOM_COUNT>
26

> <PUBCHEM_ATOM_DEF_STEREO_COUNT>
0

> <PUBCHEM_ATOM_UDEF_STEREO_COUNT>
0

> <PUBCHEM_BOND_DEF_STEREO_COUNT>
0

> <PUBCHEM_BOND_UDEF_STEREO_COUNT>
0

> <PUBCHEM_ISOTOPIC_ATOM_COUNT>
0

> <PUBCHEM_COMPONENT_COUNT>
1

> <PUBCHEM_CACTVS_TAUTO_COUNT>
-1

> <PUBCHEM_COORDINATE_TYPE>
1
5
255

> <PUBCHEM_BONDANNOTATIONS>
1  13  8
1  17  8
10  14  8
10  15  8
11  12  8
11  13  8
11  16  8
13  21  8
14  19  8
15  18  8
16  22  8
18  20  8
19  20  8
21  23  8
22  23  8
9  12  8
9  17  8

$$$$
