 
  -OEChem-10192104342D

 68 71  0     1  0  0  0  0  0999 V2000
   10.1818   -1.0950    0.0000 O   0  0  0  0  0  0  0  0  0  0  0  0
    8.4497   -1.0950    0.0000 O   0  0  0  0  0  0  0  0  0  0  0  0
    9.3158    0.4050    0.0000 O   0  0  0  0  0  0  0  0  0  0  0  0
    5.8517   -1.5950    0.0000 O   0  0  0  0  0  0  0  0  0  0  0  0
    4.8811   -0.1005    0.0000 O   0  0  0  0  0  0  0  0  0  0  0  0
   10.1818   -3.0950    0.0000 O   0  0  0  0  0  0  0  0  0  0  0  0
    6.7177   -3.0950    0.0000 O   0  0  0  0  0  0  0  0  0  0  0  0
    8.4497   -4.0950    0.0000 O   0  0  0  0  0  0  0  0  0  0  0  0
    2.6598   -1.4277    0.0000 O   0  0  0  0  0  0  0  0  0  0  0  0
    3.8642   -2.4799    0.0000 O   0  0  0  0  0  0  0  0  0  0  0  0
   13.2832   -1.0565    0.0000 O   0  0  0  0  0  0  0  0  0  0  0  0
    9.3158    3.4050    0.0000 O   0  0  0  0  0  0  0  0  0  0  0  0
    2.5369    0.7414    0.0000 O   0  0  0  0  0  0  0  0  0  0  0  0
   11.0478    3.4050    0.0000 O   0  0  0  0  0  0  0  0  0  0  0  0
   11.0478    0.4050    0.0000 C   0  0  2  0  0  0  0  0  0  0  0  0
   11.0478    1.4050    0.0000 C   0  0  2  0  0  0  0  0  0  0  0  0
   10.1818   -0.0950    0.0000 C   0  0  2  0  0  0  0  0  0  0  0  0
   11.9940    1.7097    0.0000 C   0  0  0  0  0  0  0  0  0  0  0  0
   11.9940    0.1003    0.0000 C   0  0  0  0  0  0  0  0  0  0  0  0
    9.3158   -1.5950    0.0000 C   0  0  2  0  0  0  0  0  0  0  0  0
    7.5837   -1.5950    0.0000 C   0  0  1  0  0  0  0  0  0  0  0  0
    9.3158   -2.5950    0.0000 C   0  0  1  0  0  0  0  0  0  0  0  0
    7.5837   -2.5950    0.0000 C   0  0  2  0  0  0  0  0  0  0  0  0
    8.4497   -3.0950    0.0000 C   0  0  2  0  0  0  0  0  0  0  0  0
   12.5776    0.9050    0.0000 C   0  0  0  0  0  0  0  0  0  0  0  0
   10.1818    1.9050    0.0000 C   0  0  0  0  0  0  0  0  0  0  0  0
    3.4030   -0.7586    0.0000 C   0  0  1  0  0  0  0  0  0  0  0  0
    4.0721   -1.5017    0.0000 C   0  0  2  0  0  0  0  0  0  0  0  0
    6.7177   -1.0950    0.0000 C   0  0  0  0  0  0  0  0  0  0  0  0
    4.9856   -1.0950    0.0000 C   0  0  2  0  0  0  0  0  0  0  0  0
   12.3047   -0.8503    0.0000 C   0  0  0  0  0  0  0  0  0  0  0  0
    9.3158    1.4050    0.0000 C   0  0  0  0  0  0  0  0  0  0  0  0
    3.9030    0.1074    0.0000 C   0  0  0  0  0  0  0  0  0  0  0  0
    2.5369   -0.2586    0.0000 C   0  0  0  0  0  0  0  0  0  0  0  0
   10.1818    2.9050    0.0000 C   0  0  0  0  0  0  0  0  0  0  0  0
    9.3158    4.4050    0.0000 C   0  0  0  0  0  0  0  0  0  0  0  0
   11.1378   -0.4402    0.0000 H   0  0  0  0  0  0  0  0  0  0  0  0
   11.1378    2.2502    0.0000 H   0  0  0  0  0  0  0  0  0  0  0  0
    9.6448   -0.4050    0.0000 H   0  0  0  0  0  0  0  0  0  0  0  0
   12.5314    2.0190    0.0000 H   0  0  0  0  0  0  0  0  0  0  0  0
   11.7430    2.2766    0.0000 H   0  0  0  0  0  0  0  0  0  0  0  0
    9.8527   -1.9050    0.0000 H   0  0  0  0  0  0  0  0  0  0  0  0
    7.5837   -0.9750    0.0000 H   0  0  0  0  0  0  0  0  0  0  0  0
    9.3158   -3.2150    0.0000 H   0  0  0  0  0  0  0  0  0  0  0  0
    7.0468   -2.2850    0.0000 H   0  0  0  0  0  0  0  0  0  0  0  0
    7.9128   -3.4050    0.0000 H   0  0  0  0  0  0  0  0  0  0  0  0
   13.1976    0.9050    0.0000 H   0  0  0  0  0  0  0  0  0  0  0  0
    3.4732   -1.6622    0.0000 H   0  0  0  0  0  0  0  0  0  0  0  0
    7.1162   -0.6201    0.0000 H   0  0  0  0  0  0  0  0  0  0  0  0
    6.3192   -0.6201    0.0000 H   0  0  0  0  0  0  0  0  0  0  0  0
    4.9532   -1.7142    0.0000 H   0  0  0  0  0  0  0  0  0  0  0  0
   11.6909   -0.9376    0.0000 H   0  0  0  0  0  0  0  0  0  0  0  0
   12.2841   -1.4699    0.0000 H   0  0  0  0  0  0  0  0  0  0  0  0
    8.7788    1.7150    0.0000 H   0  0  0  0  0  0  0  0  0  0  0  0
    4.0946    0.6971    0.0000 H   0  0  0  0  0  0  0  0  0  0  0  0
    3.3366    0.3596    0.0000 H   0  0  0  0  0  0  0  0  0  0  0  0
    1.9264   -0.1509    0.0000 H   0  0  0  0  0  0  0  0  0  0  0  0
    2.3249   -0.8412    0.0000 H   0  0  0  0  0  0  0  0  0  0  0  0
   10.1818   -3.7150    0.0000 H   0  0  0  0  0  0  0  0  0  0  0  0
    6.7177   -3.7150    0.0000 H   0  0  0  0  0  0  0  0  0  0  0  0
    7.9128   -4.4050    0.0000 H   0  0  0  0  0  0  0  0  0  0  0  0
    2.0702   -1.2361    0.0000 H   0  0  0  0  0  0  0  0  0  0  0  0
    3.2745   -2.6715    0.0000 H   0  0  0  0  0  0  0  0  0  0  0  0
   13.4758   -1.6458    0.0000 H   0  0  0  0  0  0  0  0  0  0  0  0
    2.0000    1.0514    0.0000 H   0  0  0  0  0  0  0  0  0  0  0  0
    9.9358    4.4050    0.0000 H   0  0  0  0  0  0  0  0  0  0  0  0
    9.3158    5.0250    0.0000 H   0  0  0  0  0  0  0  0  0  0  0  0
    8.6958    4.4050    0.0000 H   0  0  0  0  0  0  0  0  0  0  0  0
 17  1  1  6  0  0  0
 20  1  1  1  0  0  0
  2 20  1  0  0  0  0
  2 21  1  0  0  0  0
  3 17  1  0  0  0  0
  3 32  1  0  0  0  0
  4 29  1  0  0  0  0
 30  4  1  1  0  0  0
  5 30  1  0  0  0  0
  5 33  1  0  0  0  0
 22  6  1  6  0  0  0
  6 59  1  0  0  0  0
 23  7  1  6  0  0  0
  7 60  1  0  0  0  0
 24  8  1  1  0  0  0
  8 61  1  0  0  0  0
 27  9  1  6  0  0  0
  9 62  1  0  0  0  0
 28 10  1  6  0  0  0
 10 63  1  0  0  0  0
 11 31  1  0  0  0  0
 11 64  1  0  0  0  0
 12 35  1  0  0  0  0
 12 36  1  0  0  0  0
 13 34  1  0  0  0  0
 13 65  1  0  0  0  0
 14 35  2  0  0  0  0
 15 16  1  0  0  0  0
 15 17  1  0  0  0  0
 15 19  1  0  0  0  0
 15 37  1  6  0  0  0
 16 18  1  0  0  0  0
 16 26  1  0  0  0  0
 16 38  1  6  0  0  0
 17 39  1  0  0  0  0
 18 25  1  0  0  0  0
 18 40  1  0  0  0  0
 18 41  1  0  0  0  0
 19 25  2  0  0  0  0
 19 31  1  0  0  0  0
 20 22  1  0  0  0  0
 20 42  1  0  0  0  0
 21 23  1  0  0  0  0
 21 29  1  1  0  0  0
 21 43  1  0  0  0  0
 22 24  1  0  0  0  0
 22 44  1  0  0  0  0
 23 24  1  0  0  0  0
 23 45  1  0  0  0  0
 24 46  1  0  0  0  0
 25 47  1  0  0  0  0
 26 32  2  0  0  0  0
 26 35  1  0  0  0  0
 27 28  1  0  0  0  0
 27 33  1  0  0  0  0
 27 34  1  0  0  0  0
 28 30  1  0  0  0  0
 28 48  1  0  0  0  0
 29 49  1  0  0  0  0
 29 50  1  0  0  0  0
 30 51  1  0  0  0  0
 31 52  1  0  0  0  0
 31 53  1  0  0  0  0
 32 54  1  0  0  0  0
 33 55  1  0  0  0  0
 33 56  1  0  0  0  0
 34 57  1  0  0  0  0
 34 58  1  0  0  0  0
 36 66  1  0  0  0  0
 36 67  1  0  0  0  0
 36 68  1  0  0  0  0
M  END
> <PUBCHEM_COMPOUND_CID>
71552450

> <PUBCHEM_COMPOUND_CANONICALIZED>
1

> <PUBCHEM_CACTVS_COMPLEXITY>
862

> <PUBCHEM_CACTVS_HBOND_ACCEPTOR>
14

> <PUBCHEM_CACTVS_HBOND_DONOR>
7

> <PUBCHEM_CACTVS_ROTATABLE_BOND>
9

> <PUBCHEM_CACTVS_SUBSKEYS>
AAADcfB4PAAAAAAAAAAAAAAAAAAAASIAAAAkQAAAAAAAAEAAAAAAGgAACAAADVSwgAMCCAAABgCIAiDSCAAACAAgIAAACAEAAEgRFBIAIQAiUAAFwAAPMIPIbAwOgAAAAAAAAAAAAAAAAAAAAAAAAAAAAA==

> <PUBCHEM_IUPAC_OPENEYE_NAME>
methyl (1S,4aS,7aS)-1-[(2S,3R,4S,5S,6R)-6-[[(2R,3R,4R)-3,4-dihydroxy-4-(hydroxymethyl)tetrahydrofuran-2-yl]oxymethyl]-3,4,5-trihydroxy-tetrahydropyran-2-yl]oxy-7-(hydroxymethyl)-1,4a,5,7a-tetrahydrocyclopenta[c]pyran-4-carboxylate

> <PUBCHEM_IUPAC_CAS_NAME>
(1S,4aS,7aS)-1-[[(2S,3R,4S,5S,6R)-6-[[(2R,3R,4R)-3,4-dihydroxy-4-(hydroxymethyl)-2-oxolanyl]oxymethyl]-3,4,5-trihydroxy-2-oxanyl]oxy]-7-(hydroxymethyl)-1,4a,5,7a-tetrahydrocyclopenta[c]pyran-4-carboxylic acid methyl ester

> <PUBCHEM_IUPAC_NAME_MARKUP>
methyl (1<I>S</I>,4<I>a</I><I>S</I>,7<I>a</I><I>S</I>)-1-[(2<I>S</I>,3<I>R</I>,4<I>S</I>,5<I>S</I>,6<I>R</I>)-6-[[(2<I>R</I>,3<I>R</I>,4<I>R</I>)-3,4-dihydroxy-4-(hydroxymethyl)oxolan-2-yl]oxymethyl]-3,4,5-trihydroxyoxan-2-yl]oxy-7-(hydroxymethyl)-1,4<I>a</I>,5,7<I>a</I>-tetrahydrocyclopenta[c]pyran-4-carboxylate

> <PUBCHEM_IUPAC_NAME>
methyl (1S,4aS,7aS)-1-[(2S,3R,4S,5S,6R)-6-[[(2R,3R,4R)-3,4-dihydroxy-4-(hydroxymethyl)oxolan-2-yl]oxymethyl]-3,4,5-trihydroxyoxan-2-yl]oxy-7-(hydroxymethyl)-1,4a,5,7a-tetrahydrocyclopenta[c]pyran-4-carboxylate

> <PUBCHEM_IUPAC_SYSTEMATIC_NAME>
methyl (1S,4aS,7aS)-7-(hydroxymethyl)-1-[(2S,3R,4S,5S,6R)-6-[[(2R,3R,4R)-4-(hydroxymethyl)-3,4-bis(oxidanyl)oxolan-2-yl]oxymethyl]-3,4,5-tris(oxidanyl)oxan-2-yl]oxy-1,4a,5,7a-tetrahydrocyclopenta[c]pyran-4-carboxylate

> <PUBCHEM_IUPAC_TRADITIONAL_NAME>
(1S,4aS,7aS)-1-[(2S,3R,4S,5S,6R)-6-[[(2R,3R,4R)-3,4-dihydroxy-4-methylol-tetrahydrofuran-2-yl]oxymethyl]-3,4,5-trihydroxy-tetrahydropyran-2-yl]oxy-7-methylol-1,4a,5,7a-tetrahydrocyclopenta[c]pyran-4-carboxylic acid methyl ester

> <PUBCHEM_IUPAC_INCHI>
InChI=1S/C22H32O14/c1-31-18(29)11-5-32-19(13-9(4-23)2-3-10(11)13)36-20-16(27)15(26)14(25)12(35-20)6-33-21-17(28)22(30,7-24)8-34-21/h2,5,10,12-17,19-21,23-28,30H,3-4,6-8H2,1H3/t10-,12-,13-,14-,15+,16-,17+,19+,20+,21-,22-/m1/s1

> <PUBCHEM_IUPAC_INCHIKEY>
OOUBSPPBTVIADD-IDPBDCHGSA-N

> <PUBCHEM_XLOGP3_AA>
-4.1

> <PUBCHEM_EXACT_MASS>
520.17920569

> <PUBCHEM_MOLECULAR_FORMULA>
C22H32O14

> <PUBCHEM_MOLECULAR_WEIGHT>
520.5

> <PUBCHEM_OPENEYE_CAN_SMILES>
COC(=O)C1=COC(C2C1CC=C2CO)OC3C(C(C(C(O3)COC4C(C(CO4)(CO)O)O)O)O)O

> <PUBCHEM_OPENEYE_ISO_SMILES>
COC(=O)C1=CO[C@H]([C@H]2[C@@H]1CC=C2CO)O[C@H]3[C@@H]([C@H]([C@@H]([C@H](O3)CO[C@H]4[C@@H]([C@](CO4)(CO)O)O)O)O)O

> <PUBCHEM_CACTVS_TPSA>
214

> <PUBCHEM_MONOISOTOPIC_WEIGHT>
520.17920569

> <PUBCHEM_TOTAL_CHARGE>
0

> <PUBCHEM_HEAVY_ATOM_COUNT>
36

> <PUBCHEM_ATOM_DEF_STEREO_COUNT>
11

> <PUBCHEM_ATOM_UDEF_STEREO_COUNT>
0

> <PUBCHEM_BOND_DEF_STEREO_COUNT>
0

> <PUBCHEM_BOND_UDEF_STEREO_COUNT>
0

> <PUBCHEM_ISOTOPIC_ATOM_COUNT>
0

> <PUBCHEM_COMPONENT_COUNT>
1

> <PUBCHEM_CACTVS_TAUTO_COUNT>
-1

> <PUBCHEM_COORDINATE_TYPE>
1
5
255

> <PUBCHEM_BONDANNOTATIONS>
17  1  6
20  1  5
28  10  6
15  37  6
16  38  6
21  29  5
30  4  5
22  6  6
23  7  6
24  8  5
27  9  6

$$$$
