 
  -OEChem-10192103262D

 78 82  0     1  0  0  0  0  0999 V2000
    7.7244    2.0396    0.0000 O   0  0  0  0  0  0  0  0  0  0  0  0
    4.6557    2.0396    0.0000 O   0  0  0  0  0  0  0  0  0  0  0  0
    6.4264   -2.1548    0.0000 O   0  0  0  0  0  0  0  0  0  0  0  0
    8.3834   -2.5672    0.0000 O   0  0  0  0  0  0  0  0  0  0  0  0
    5.9637    6.2370    0.0000 O   0  0  0  0  0  0  0  0  0  0  0  0
    2.6691    5.1666    0.0000 O   0  0  0  0  0  0  0  0  0  0  0  0
    4.0074    6.6528    0.0000 O   0  0  0  0  0  0  0  0  0  0  0  0
    9.0047   -4.4683    0.0000 O   0  0  0  0  0  0  0  0  0  0  0  0
   11.0082   -2.2354    0.0000 O   0  0  0  0  0  0  0  0  0  0  0  0
   12.2509   -6.0374    0.0000 O   0  0  0  0  0  0  0  0  0  0  0  0
   13.5866   -4.5488    0.0000 O   0  0  0  0  0  0  0  0  0  0  0  0
    6.1945    1.5396    0.0000 C   0  0  2  0  0  0  0  0  0  0  0  0
    6.1945    2.5396    0.0000 C   0  0  2  0  0  0  0  0  0  0  0  0
    7.1407    1.2349    0.0000 C   0  0  2  0  0  0  0  0  0  0  0  0
    5.2435    2.8486    0.0000 C   0  0  2  0  0  0  0  0  0  0  0  0
    7.1407    2.8443    0.0000 C   0  0  0  0  0  0  0  0  0  0  0  0
    5.2435    1.2306    0.0000 C   0  0  0  0  0  0  0  0  0  0  0  0
    7.4514    0.2843    0.0000 C   0  0  0  0  0  0  0  0  0  0  0  0
    4.9344    3.7997    0.0000 C   0  0  0  0  0  0  0  0  0  0  0  0
    6.7836   -0.4600    0.0000 C   0  0  0  0  0  0  0  0  0  0  0  0
    3.9563    4.0076    0.0000 C   0  0  0  0  0  0  0  0  0  0  0  0
    5.6036    4.5428    0.0000 C   0  0  0  0  0  0  0  0  0  0  0  0
    8.4299    0.0781    0.0000 C   0  0  0  0  0  0  0  0  0  0  0  0
    7.0942   -1.4105    0.0000 C   0  0  0  0  0  0  0  0  0  0  0  0
    5.2946    5.4939    0.0000 C   0  0  0  0  0  0  0  0  0  0  0  0
    3.6473    4.9586    0.0000 C   0  0  0  0  0  0  0  0  0  0  0  0
    8.7406   -0.8724    0.0000 C   0  0  0  0  0  0  0  0  0  0  0  0
    8.0727   -1.6167    0.0000 C   0  0  0  0  0  0  0  0  0  0  0  0
    4.3164    5.7018    0.0000 C   0  0  0  0  0  0  0  0  0  0  0  0
    9.3619   -2.7734    0.0000 C   0  0  1  0  0  0  0  0  0  0  0  0
    9.6726   -3.7240    0.0000 C   0  0  2  0  0  0  0  0  0  0  0  0
    5.4479   -1.9486    0.0000 C   0  0  0  0  0  0  0  0  0  0  0  0
    6.9418    6.0291    0.0000 C   0  0  0  0  0  0  0  0  0  0  0  0
    2.0000    4.4234    0.0000 C   0  0  0  0  0  0  0  0  0  0  0  0
   10.0297   -2.0291    0.0000 C   0  0  0  0  0  0  0  0  0  0  0  0
   10.6511   -3.9302    0.0000 C   0  0  0  0  0  0  0  0  0  0  0  0
   10.9617   -4.8807    0.0000 C   0  0  0  0  0  0  0  0  0  0  0  0
   11.3189   -3.1859    0.0000 C   0  0  0  0  0  0  0  0  0  0  0  0
   11.9402   -5.0869    0.0000 C   0  0  0  0  0  0  0  0  0  0  0  0
   12.2974   -3.3921    0.0000 C   0  0  0  0  0  0  0  0  0  0  0  0
   12.6081   -4.3426    0.0000 C   0  0  0  0  0  0  0  0  0  0  0  0
   11.5830   -6.7817    0.0000 C   0  0  0  0  0  0  0  0  0  0  0  0
    6.1956    0.6896    0.0000 H   0  0  0  0  0  0  0  0  0  0  0  0
    6.1956    3.3896    0.0000 H   0  0  0  0  0  0  0  0  0  0  0  0
    7.7532    1.1387    0.0000 H   0  0  0  0  0  0  0  0  0  0  0  0
    4.6311    2.9456    0.0000 H   0  0  0  0  0  0  0  0  0  0  0  0
    7.6781    3.1536    0.0000 H   0  0  0  0  0  0  0  0  0  0  0  0
    6.8897    3.4112    0.0000 H   0  0  0  0  0  0  0  0  0  0  0  0
    4.7065    0.9206    0.0000 H   0  0  0  0  0  0  0  0  0  0  0  0
    5.4956    0.6642    0.0000 H   0  0  0  0  0  0  0  0  0  0  0  0
    6.1769   -0.3321    0.0000 H   0  0  0  0  0  0  0  0  0  0  0  0
    8.8440    0.5396    0.0000 H   0  0  0  0  0  0  0  0  0  0  0  0
    3.5414    3.5468    0.0000 H   0  0  0  0  0  0  0  0  0  0  0  0
    6.2100    4.4139    0.0000 H   0  0  0  0  0  0  0  0  0  0  0  0
    9.3472   -1.0003    0.0000 H   0  0  0  0  0  0  0  0  0  0  0  0
    8.9478   -3.2349    0.0000 H   0  0  0  0  0  0  0  0  0  0  0  0
    3.4009    6.7817    0.0000 H   0  0  0  0  0  0  0  0  0  0  0  0
    9.8652   -4.3133    0.0000 H   0  0  0  0  0  0  0  0  0  0  0  0
    5.5757   -1.3419    0.0000 H   0  0  0  0  0  0  0  0  0  0  0  0
    4.8412   -1.8207    0.0000 H   0  0  0  0  0  0  0  0  0  0  0  0
    5.3200   -2.5552    0.0000 H   0  0  0  0  0  0  0  0  0  0  0  0
    6.8129    5.4226    0.0000 H   0  0  0  0  0  0  0  0  0  0  0  0
    7.5483    5.9002    0.0000 H   0  0  0  0  0  0  0  0  0  0  0  0
    7.0707    6.6356    0.0000 H   0  0  0  0  0  0  0  0  0  0  0  0
    1.5392    4.8383    0.0000 H   0  0  0  0  0  0  0  0  0  0  0  0
    1.5851    3.9626    0.0000 H   0  0  0  0  0  0  0  0  0  0  0  0
    2.4608    4.0085    0.0000 H   0  0  0  0  0  0  0  0  0  0  0  0
   10.2610   -1.4539    0.0000 H   0  0  0  0  0  0  0  0  0  0  0  0
    9.5034   -1.7015    0.0000 H   0  0  0  0  0  0  0  0  0  0  0  0
    9.1973   -5.0576    0.0000 H   0  0  0  0  0  0  0  0  0  0  0  0
   10.5477   -5.3422    0.0000 H   0  0  0  0  0  0  0  0  0  0  0  0
   11.1263   -2.5966    0.0000 H   0  0  0  0  0  0  0  0  0  0  0  0
   11.4223   -1.7739    0.0000 H   0  0  0  0  0  0  0  0  0  0  0  0
   12.7115   -2.9306    0.0000 H   0  0  0  0  0  0  0  0  0  0  0  0
   14.0006   -4.0874    0.0000 H   0  0  0  0  0  0  0  0  0  0  0  0
   11.1216   -6.3677    0.0000 H   0  0  0  0  0  0  0  0  0  0  0  0
   11.1690   -7.2432    0.0000 H   0  0  0  0  0  0  0  0  0  0  0  0
   12.0445   -7.1958    0.0000 H   0  0  0  0  0  0  0  0  0  0  0  0
  1 14  1  0  0  0  0
  1 16  1  0  0  0  0
  2 15  1  0  0  0  0
  2 17  1  0  0  0  0
  3 24  1  0  0  0  0
  3 32  1  0  0  0  0
  4 28  1  0  0  0  0
 30  4  1  6  0  0  0
  5 25  1  0  0  0  0
  5 33  1  0  0  0  0
  6 26  1  0  0  0  0
  6 34  1  0  0  0  0
  7 29  1  0  0  0  0
  7 57  1  0  0  0  0
 31  8  1  6  0  0  0
  8 70  1  0  0  0  0
  9 35  1  0  0  0  0
  9 73  1  0  0  0  0
 10 39  1  0  0  0  0
 10 42  1  0  0  0  0
 11 41  1  0  0  0  0
 11 75  1  0  0  0  0
 12 13  1  0  0  0  0
 12 14  1  0  0  0  0
 12 17  1  0  0  0  0
 12 43  1  1  0  0  0
 13 15  1  0  0  0  0
 13 16  1  0  0  0  0
 13 44  1  1  0  0  0
 14 18  1  1  0  0  0
 14 45  1  0  0  0  0
 15 19  1  1  0  0  0
 15 46  1  0  0  0  0
 16 47  1  0  0  0  0
 16 48  1  0  0  0  0
 17 49  1  0  0  0  0
 17 50  1  0  0  0  0
 18 20  2  0  0  0  0
 18 23  1  0  0  0  0
 19 21  2  0  0  0  0
 19 22  1  0  0  0  0
 20 24  1  0  0  0  0
 20 51  1  0  0  0  0
 21 26  1  0  0  0  0
 21 53  1  0  0  0  0
 22 25  2  0  0  0  0
 22 54  1  0  0  0  0
 23 27  2  0  0  0  0
 23 52  1  0  0  0  0
 24 28  2  0  0  0  0
 25 29  1  0  0  0  0
 26 29  2  0  0  0  0
 27 28  1  0  0  0  0
 27 55  1  0  0  0  0
 30 31  1  0  0  0  0
 30 35  1  0  0  0  0
 30 56  1  0  0  0  0
 31 36  1  0  0  0  0
 31 58  1  0  0  0  0
 32 59  1  0  0  0  0
 32 60  1  0  0  0  0
 32 61  1  0  0  0  0
 33 62  1  0  0  0  0
 33 63  1  0  0  0  0
 33 64  1  0  0  0  0
 34 65  1  0  0  0  0
 34 66  1  0  0  0  0
 34 67  1  0  0  0  0
 35 68  1  0  0  0  0
 35 69  1  0  0  0  0
 36 37  2  0  0  0  0
 36 38  1  0  0  0  0
 37 39  1  0  0  0  0
 37 71  1  0  0  0  0
 38 40  2  0  0  0  0
 38 72  1  0  0  0  0
 39 41  2  0  0  0  0
 40 41  1  0  0  0  0
 40 74  1  0  0  0  0
 42 76  1  0  0  0  0
 42 77  1  0  0  0  0
 42 78  1  0  0  0  0
M  END
> <PUBCHEM_COMPOUND_CID>
10627141

> <PUBCHEM_COMPOUND_CANONICALIZED>
1

> <PUBCHEM_CACTVS_COMPLEXITY>
819

> <PUBCHEM_CACTVS_HBOND_ACCEPTOR>
11

> <PUBCHEM_CACTVS_HBOND_DONOR>
4

> <PUBCHEM_CACTVS_ROTATABLE_BOND>
11

> <PUBCHEM_CACTVS_SUBSKEYS>
AAADcfB4PAAAAAAAAAAAAAAAAAAAASJAAAAwYMAAAAASAAABUAAAGgAACAAADRSgmAIyBoAABgCAAiBCAAACCAAgIAAIiAAGiIgNNyKGMRqCeCOlwBULuAfA4PwOoAABCAAAQABAAAIQAACAAAAAAAAAAA==

> <PUBCHEM_IUPAC_OPENEYE_NAME>
(1S,2R)-2-[4-[(3R,3aS,6R,6aS)-6-(4-hydroxy-3,5-dimethoxy-phenyl)-1,3,3a,4,6,6a-hexahydrofuro[3,4-c]furan-3-yl]-2-methoxy-phenoxy]-1-(4-hydroxy-3-methoxy-phenyl)propane-1,3-diol

> <PUBCHEM_IUPAC_CAS_NAME>
(1S,2R)-2-[4-[(3R,3aS,6R,6aS)-6-(4-hydroxy-3,5-dimethoxyphenyl)-1,3,3a,4,6,6a-hexahydrofuro[3,4-c]furan-3-yl]-2-methoxyphenoxy]-1-(4-hydroxy-3-methoxyphenyl)propane-1,3-diol

> <PUBCHEM_IUPAC_NAME_MARKUP>
(1<I>S</I>,2<I>R</I>)-2-[4-[(3<I>R</I>,3<I>a</I><I>S</I>,6<I>R</I>,6<I>a</I><I>S</I>)-6-(4-hydroxy-3,5-dimethoxyphenyl)-1,3,3<I>a</I>,4,6,6<I>a</I>-hexahydrofuro[3,4-c]furan-3-yl]-2-methoxyphenoxy]-1-(4-hydroxy-3-methoxyphenyl)propane-1,3-diol

> <PUBCHEM_IUPAC_NAME>
(1S,2R)-2-[4-[(3R,3aS,6R,6aS)-6-(4-hydroxy-3,5-dimethoxyphenyl)-1,3,3a,4,6,6a-hexahydrofuro[3,4-c]furan-3-yl]-2-methoxyphenoxy]-1-(4-hydroxy-3-methoxyphenyl)propane-1,3-diol

> <PUBCHEM_IUPAC_SYSTEMATIC_NAME>
(1S,2R)-2-[4-[(3R,3aS,6R,6aS)-6-(3,5-dimethoxy-4-oxidanyl-phenyl)-1,3,3a,4,6,6a-hexahydrofuro[3,4-c]furan-3-yl]-2-methoxy-phenoxy]-1-(3-methoxy-4-oxidanyl-phenyl)propane-1,3-diol

> <PUBCHEM_IUPAC_TRADITIONAL_NAME>
(1S,2R)-2-[4-[(3R,3aS,6R,6aS)-6-(4-hydroxy-3,5-dimethoxy-phenyl)-1,3,3a,4,6,6a-hexahydrofuro[3,4-c]furan-3-yl]-2-methoxy-phenoxy]-1-(4-hydroxy-3-methoxy-phenyl)propane-1,3-diol

> <PUBCHEM_IUPAC_INCHI>
InChI=1S/C31H36O11/c1-36-23-9-16(5-7-21(23)33)28(34)27(13-32)42-22-8-6-17(10-24(22)37-2)30-19-14-41-31(20(19)15-40-30)18-11-25(38-3)29(35)26(12-18)39-4/h5-12,19-20,27-28,30-35H,13-15H2,1-4H3/t19-,20-,27-,28+,30+,31+/m1/s1

> <PUBCHEM_IUPAC_INCHIKEY>
PFZFCRCFYYFTPE-VSXYQEGNSA-N

> <PUBCHEM_XLOGP3_AA>
2.4

> <PUBCHEM_EXACT_MASS>
584.22576196

> <PUBCHEM_MOLECULAR_FORMULA>
C31H36O11

> <PUBCHEM_MOLECULAR_WEIGHT>
584.6

> <PUBCHEM_OPENEYE_CAN_SMILES>
COC1=CC(=CC(=C1O)OC)C2C3COC(C3CO2)C4=CC(=C(C=C4)OC(CO)C(C5=CC(=C(C=C5)O)OC)O)OC

> <PUBCHEM_OPENEYE_ISO_SMILES>
COC1=CC(=CC(=C1O)OC)[C@H]2[C@@H]3CO[C@H]([C@@H]3CO2)C4=CC(=C(C=C4)O[C@H](CO)[C@H](C5=CC(=C(C=C5)O)OC)O)OC

> <PUBCHEM_CACTVS_TPSA>
146

> <PUBCHEM_MONOISOTOPIC_WEIGHT>
584.22576196

> <PUBCHEM_TOTAL_CHARGE>
0

> <PUBCHEM_HEAVY_ATOM_COUNT>
42

> <PUBCHEM_ATOM_DEF_STEREO_COUNT>
6

> <PUBCHEM_ATOM_UDEF_STEREO_COUNT>
0

> <PUBCHEM_BOND_DEF_STEREO_COUNT>
0

> <PUBCHEM_BOND_UDEF_STEREO_COUNT>
0

> <PUBCHEM_ISOTOPIC_ATOM_COUNT>
0

> <PUBCHEM_COMPONENT_COUNT>
1

> <PUBCHEM_CACTVS_TAUTO_COUNT>
-1

> <PUBCHEM_COORDINATE_TYPE>
1
5
255

> <PUBCHEM_BONDANNOTATIONS>
12  43  5
13  44  5
14  18  5
15  19  5
18  20  8
18  23  8
19  21  8
19  22  8
20  24  8
21  26  8
22  25  8
23  27  8
24  28  8
25  29  8
26  29  8
27  28  8
36  37  8
36  38  8
37  39  8
38  40  8
39  41  8
30  4  6
40  41  8
31  8  6

$$$$
